# File generated by Flopy version 3.3.4 on 05/14/2021 at 09:58:04.
BEGIN options
END options

BEGIN timing
  TDIS6  mfsim.tdis
END timing

BEGIN models
  gwf6  neversink.nam  neversink
END models

BEGIN exchanges
END exchanges

BEGIN solutiongroup  1
  ims6  mfsim.ims  neversink
END solutiongroup  1

