# File generated by Flopy version 3.3.4 on 05/14/2021 at 09:58:04.
BEGIN options
  TIME_UNITS  days
  START_DATE_TIME  2011-01-01
END options

BEGIN dimensions
  NPER  1
END dimensions

BEGIN perioddata
       1.00000000  1       1.00000000   2011-01-01 to 2011-01-02
END perioddata

