# File generated by Flopy version 3.3.4 on 05/14/2021 at 09:58:04.
BEGIN options
  BOUNDNAMES
  PRINT_INPUT
  PRINT_FLOWS
  SAVE_FLOWS
END options

BEGIN dimensions
  MAXBOUND  34
END dimensions

BEGIN period  1
    OPEN/CLOSE  '.\.\wel_000.dat'
END period  1

