# File generated by Flopy version 3.3.4 on 05/14/2021 at 09:58:04.
BEGIN griddata
  strt  LAYERED
    OPEN/CLOSE  '.\.\top_50m_from_lidar.tif'  FACTOR  1.0
    OPEN/CLOSE  '.\.\top_50m_from_lidar.tif'  FACTOR  1.0
    OPEN/CLOSE  '.\.\top_50m_from_lidar.tif'  FACTOR  1.0
    OPEN/CLOSE  '.\.\top_50m_from_lidar.tif'  FACTOR  1.0
END griddata

