# File generated by Flopy version 3.3.4 on 05/14/2021 at 09:58:04.
BEGIN options
  SAVE_FLOWS
END options

BEGIN dimensions
  MAXBOUND  176
END dimensions

BEGIN period  1
    OPEN/CLOSE  '.\.\chd_000.dat'
END period  1

