# File generated by Flopy version 3.3.4 on 05/14/2021 at 09:58:04.
BEGIN options
  READASARRAYS
  PRINT_INPUT
  SAVE_FLOWS
END options

BEGIN period  1
  irch
    OPEN/CLOSE  '.\.\irch.dat'  FACTOR  1
  recharge
    OPEN/CLOSE  '.\.\rch_000.dat'  FACTOR  1.0
END period  1

