pcf
* control data
             restart          estimation
      4172         0        14         0         0         0
        20         0              single               point         1         0         0          noobsreref
   2.000000E+01  -3.000000E+00   3.000000E-01   1.000000E-02        -7       999          lamforgive        noderforgive
   1.000000E+01   1.000000E+01   1.000000E-03         0         0
   1.000000E-01         1   1.100000E+00               noaui          nosenreuse        noboundscale
         0   1.000000E-02         3         3   1.000000E-02         3   0.000000E+00         1  -1.000000E+00
         0         0         0         0             jcosave          verboserec          jcosaveitn          reisaveitn          parsaveitn        noparsaverun
* singular value decomposition
         1
  10000000    1.000000E-06
1
* parameter groups
 k_pp_:1                 relative              1.0000000000E-02       0.0  switch                2.0000000000E+00       parabolic             1.0000000000E-05      5.0000000000E-01       smaller              
 k33_pp_:1               relative              1.0000000000E-02       0.0  switch                2.0000000000E+00       parabolic             1.0000000000E-05      5.0000000000E-01       smaller              
 k_pp_:2                 relative              1.0000000000E-02       0.0  switch                2.0000000000E+00       parabolic             1.0000000000E-05      5.0000000000E-01       smaller              
 k33_pp_:2               relative              1.0000000000E-02       0.0  switch                2.0000000000E+00       parabolic             1.0000000000E-05      5.0000000000E-01       smaller              
 k_pp_:3                 relative              1.0000000000E-02       0.0  switch                2.0000000000E+00       parabolic             1.0000000000E-05      5.0000000000E-01       smaller              
 k33_pp_:3               relative              1.0000000000E-02       0.0  switch                2.0000000000E+00       parabolic             1.0000000000E-05      5.0000000000E-01       smaller              
 rch_pp_:0               relative              1.0000000000E-02       0.0  switch                2.0000000000E+00       parabolic             1.0000000000E-05      5.0000000000E-01       smaller              
 k_pp_:0                 relative              1.0000000000E-02       0.0  switch                2.0000000000E+00       parabolic             1.0000000000E-05      5.0000000000E-01       smaller              
 k33_pp_:0               relative              1.0000000000E-02       0.0  switch                2.0000000000E+00       parabolic             1.0000000000E-05      5.0000000000E-01       smaller              
 chd                     relative              1.0000000000E-02       0.0  switch                2.0000000000E+00       parabolic             1.0000000000E-05      5.0000000000E-01       smaller              
 zn_k33__multiplier      relative              1.0000000000E-02       0.0  switch                2.0000000000E+00       parabolic             1.0000000000E-05      5.0000000000E-01       smaller              
 zn_k__multiplier        relative              1.0000000000E-02       0.0  switch                2.0000000000E+00       parabolic             1.0000000000E-05      5.0000000000E-01       smaller              
 wel                     relative              1.0000000000E-02       0.0  switch                2.0000000000E+00       parabolic             1.0000000000E-05      5.0000000000E-01       smaller              
 pp_rch__multiplier      relative              1.0000000000E-02       0.0  switch                2.0000000000E+00       parabolic             1.0000000000E-05      5.0000000000E-01       smaller              
* parameter data
 wel__:0_usecol:3_idx0:0_idx1:225_idx2:185   log                    factor                1.0000000000E+00      8.0000000000E-01      1.2000000000E+00       wel                   1.0000000000E+00      0.0000000000E+00      1          
 wel__:0_usecol:3_idx0:0_idx1:556_idx2:459   log                    factor                1.0000000000E+00      8.0000000000E-01      1.2000000000E+00       wel                   1.0000000000E+00      0.0000000000E+00      1          
 wel__:0_usecol:3_idx0:3_idx1:260_idx2:180   log                    factor                1.0000000000E+00      8.0000000000E-01      1.2000000000E+00       wel                   1.0000000000E+00      0.0000000000E+00      1          
 wel__:0_usecol:3_idx0:2_idx1:249_idx2:181   log                    factor                1.0000000000E+00      8.0000000000E-01      1.2000000000E+00       wel                   1.0000000000E+00      0.0000000000E+00      1          
 wel__:0_usecol:3_idx0:1_idx1:249_idx2:536   log                    factor                1.0000000000E+00      8.0000000000E-01      1.2000000000E+00       wel                   1.0000000000E+00      0.0000000000E+00      1          
 wel__:0_usecol:3_idx0:1_idx1:248_idx2:536   log                    factor                1.0000000000E+00      8.0000000000E-01      1.2000000000E+00       wel                   1.0000000000E+00      0.0000000000E+00      1          
 wel__:0_usecol:3_idx0:0_idx1:299_idx2:255   log                    factor                1.0000000000E+00      8.0000000000E-01      1.2000000000E+00       wel                   1.0000000000E+00      0.0000000000E+00      1          
 wel__:0_usecol:3_idx0:3_idx1:236_idx2:185   log                    factor                1.0000000000E+00      8.0000000000E-01      1.2000000000E+00       wel                   1.0000000000E+00      0.0000000000E+00      1          
 wel__:0_usecol:3_idx0:0_idx1:248_idx2:181   log                    factor                1.0000000000E+00      8.0000000000E-01      1.2000000000E+00       wel                   1.0000000000E+00      0.0000000000E+00      1          
 wel__:0_usecol:3_idx0:3_idx1:237_idx2:198   log                    factor                1.0000000000E+00      8.0000000000E-01      1.2000000000E+00       wel                   1.0000000000E+00      0.0000000000E+00      1          
 wel__:0_usecol:3_idx0:2_idx1:322_idx2:291   log                    factor                1.0000000000E+00      8.0000000000E-01      1.2000000000E+00       wel                   1.0000000000E+00      0.0000000000E+00      1          
 wel__:0_usecol:3_idx0:3_idx1:557_idx2:459   log                    factor                1.0000000000E+00      8.0000000000E-01      1.2000000000E+00       wel                   1.0000000000E+00      0.0000000000E+00      1          
 wel__:0_usecol:3_idx0:3_idx1:226_idx2:185   log                    factor                1.0000000000E+00      8.0000000000E-01      1.2000000000E+00       wel                   1.0000000000E+00      0.0000000000E+00      1          
 wel__:0_usecol:3_idx0:3_idx1:143_idx2:216   log                    factor                1.0000000000E+00      8.0000000000E-01      1.2000000000E+00       wel                   1.0000000000E+00      0.0000000000E+00      1          
 wel__:0_usecol:3_idx0:2_idx1:324_idx2:218   log                    factor                1.0000000000E+00      8.0000000000E-01      1.2000000000E+00       wel                   1.0000000000E+00      0.0000000000E+00      1          
 wel__:0_usecol:3_idx0:3_idx1:143_idx2:215   log                    factor                1.0000000000E+00      8.0000000000E-01      1.2000000000E+00       wel                   1.0000000000E+00      0.0000000000E+00      1          
 wel__:0_usecol:3_idx0:3_idx1:299_idx2:255   log                    factor                1.0000000000E+00      8.0000000000E-01      1.2000000000E+00       wel                   1.0000000000E+00      0.0000000000E+00      1          
 wel__:0_usecol:3_idx0:1_idx1:247_idx2:538   log                    factor                1.0000000000E+00      8.0000000000E-01      1.2000000000E+00       wel                   1.0000000000E+00      0.0000000000E+00      1          
 wel__:0_usecol:3_idx0:3_idx1:234_idx2:186   log                    factor                1.0000000000E+00      8.0000000000E-01      1.2000000000E+00       wel                   1.0000000000E+00      0.0000000000E+00      1          
 wel__:0_usecol:3_idx0:1_idx1:228_idx2:536   log                    factor                1.0000000000E+00      8.0000000000E-01      1.2000000000E+00       wel                   1.0000000000E+00      0.0000000000E+00      1          
 wel__:0_usecol:3_idx0:3_idx1:223_idx2:202   log                    factor                1.0000000000E+00      8.0000000000E-01      1.2000000000E+00       wel                   1.0000000000E+00      0.0000000000E+00      1          
 wel__:0_usecol:3_idx0:3_idx1:165_idx2:157   log                    factor                1.0000000000E+00      8.0000000000E-01      1.2000000000E+00       wel                   1.0000000000E+00      0.0000000000E+00      1          
 wel__:0_usecol:3_idx0:3_idx1:234_idx2:183   log                    factor                1.0000000000E+00      8.0000000000E-01      1.2000000000E+00       wel                   1.0000000000E+00      0.0000000000E+00      1          
 wel__:0_usecol:3_idx0:3_idx1:376_idx2:482   log                    factor                1.0000000000E+00      8.0000000000E-01      1.2000000000E+00       wel                   1.0000000000E+00      0.0000000000E+00      1          
 wel__:0_usecol:3_idx0:3_idx1:218_idx2:178   log                    factor                1.0000000000E+00      8.0000000000E-01      1.2000000000E+00       wel                   1.0000000000E+00      0.0000000000E+00      1          
 wel__:0_usecol:3_idx0:3_idx1:328_idx2:317   log                    factor                1.0000000000E+00      8.0000000000E-01      1.2000000000E+00       wel                   1.0000000000E+00      0.0000000000E+00      1          
 wel__:0_usecol:3_idx0:1_idx1:579_idx2:458   log                    factor                1.0000000000E+00      8.0000000000E-01      1.2000000000E+00       wel                   1.0000000000E+00      0.0000000000E+00      1          
 wel__:0_usecol:3_idx0:0_idx1:346_idx2:208   log                    factor                1.0000000000E+00      8.0000000000E-01      1.2000000000E+00       wel                   1.0000000000E+00      0.0000000000E+00      1          
 wel__:0_usecol:3_idx0:2_idx1:301_idx2:174   log                    factor                1.0000000000E+00      8.0000000000E-01      1.2000000000E+00       wel                   1.0000000000E+00      0.0000000000E+00      1          
 wel__:0_usecol:3_idx0:3_idx1:285_idx2:352   log                    factor                1.0000000000E+00      8.0000000000E-01      1.2000000000E+00       wel                   1.0000000000E+00      0.0000000000E+00      1          
 wel__:0_usecol:3_idx0:3_idx1:245_idx2:182   log                    factor                1.0000000000E+00      8.0000000000E-01      1.2000000000E+00       wel                   1.0000000000E+00      0.0000000000E+00      1          
 chd__:0_usecol:3_idx0:2_idx1:181_idx2:549   log                    factor                1.0000000000E+00      8.0000000000E-01      1.2000000000E+00       chd                   1.0000000000E+00      0.0000000000E+00      1          
   chd__:0_usecol:3_idx0:0_idx1:84_idx2:82   log                    factor                1.0000000000E+00      8.0000000000E-01      1.2000000000E+00       chd                   1.0000000000E+00      0.0000000000E+00      1          
   chd__:0_usecol:3_idx0:3_idx1:82_idx2:84   log                    factor                1.0000000000E+00      8.0000000000E-01      1.2000000000E+00       chd                   1.0000000000E+00      0.0000000000E+00      1          
   chd__:0_usecol:3_idx0:1_idx1:86_idx2:81   log                    factor                1.0000000000E+00      8.0000000000E-01      1.2000000000E+00       chd                   1.0000000000E+00      0.0000000000E+00      1          
 chd__:0_usecol:3_idx0:2_idx1:181_idx2:547   log                    factor                1.0000000000E+00      8.0000000000E-01      1.2000000000E+00       chd                   1.0000000000E+00      0.0000000000E+00      1          
 chd__:0_usecol:3_idx0:1_idx1:652_idx2:420   log                    factor                1.0000000000E+00      8.0000000000E-01      1.2000000000E+00       chd                   1.0000000000E+00      0.0000000000E+00      1          
 chd__:0_usecol:3_idx0:1_idx1:181_idx2:549   log                    factor                1.0000000000E+00      8.0000000000E-01      1.2000000000E+00       chd                   1.0000000000E+00      0.0000000000E+00      1          
 chd__:0_usecol:3_idx0:3_idx1:641_idx2:397   log                    factor                1.0000000000E+00      8.0000000000E-01      1.2000000000E+00       chd                   1.0000000000E+00      0.0000000000E+00      1          
   chd__:0_usecol:3_idx0:0_idx1:86_idx2:81   log                    factor                1.0000000000E+00      8.0000000000E-01      1.2000000000E+00       chd                   1.0000000000E+00      0.0000000000E+00      1          
 chd__:0_usecol:3_idx0:3_idx1:647_idx2:410   log                    factor                1.0000000000E+00      8.0000000000E-01      1.2000000000E+00       chd                   1.0000000000E+00      0.0000000000E+00      1          
 chd__:0_usecol:3_idx0:1_idx1:181_idx2:547   log                    factor                1.0000000000E+00      8.0000000000E-01      1.2000000000E+00       chd                   1.0000000000E+00      0.0000000000E+00      1          
 chd__:0_usecol:3_idx0:0_idx1:641_idx2:397   log                    factor                1.0000000000E+00      8.0000000000E-01      1.2000000000E+00       chd                   1.0000000000E+00      0.0000000000E+00      1          
 chd__:0_usecol:3_idx0:2_idx1:648_idx2:411   log                    factor                1.0000000000E+00      8.0000000000E-01      1.2000000000E+00       chd                   1.0000000000E+00      0.0000000000E+00      1          
 chd__:0_usecol:3_idx0:1_idx1:182_idx2:544   log                    factor                1.0000000000E+00      8.0000000000E-01      1.2000000000E+00       chd                   1.0000000000E+00      0.0000000000E+00      1          
 chd__:0_usecol:3_idx0:1_idx1:183_idx2:554   log                    factor                1.0000000000E+00      8.0000000000E-01      1.2000000000E+00       chd                   1.0000000000E+00      0.0000000000E+00      1          
 chd__:0_usecol:3_idx0:3_idx1:432_idx2:208   log                    factor                1.0000000000E+00      8.0000000000E-01      1.2000000000E+00       chd                   1.0000000000E+00      0.0000000000E+00      1          
 chd__:0_usecol:3_idx0:0_idx1:650_idx2:415   log                    factor                1.0000000000E+00      8.0000000000E-01      1.2000000000E+00       chd                   1.0000000000E+00      0.0000000000E+00      1          
 chd__:0_usecol:3_idx0:1_idx1:182_idx2:546   log                    factor                1.0000000000E+00      8.0000000000E-01      1.2000000000E+00       chd                   1.0000000000E+00      0.0000000000E+00      1          
 chd__:0_usecol:3_idx0:0_idx1:654_idx2:425   log                    factor                1.0000000000E+00      8.0000000000E-01      1.2000000000E+00       chd                   1.0000000000E+00      0.0000000000E+00      1          
 chd__:0_usecol:3_idx0:0_idx1:639_idx2:393   log                    factor                1.0000000000E+00      8.0000000000E-01      1.2000000000E+00       chd                   1.0000000000E+00      0.0000000000E+00      1          
 chd__:0_usecol:3_idx0:1_idx1:650_idx2:416   log                    factor                1.0000000000E+00      8.0000000000E-01      1.2000000000E+00       chd                   1.0000000000E+00      0.0000000000E+00      1          
 chd__:0_usecol:3_idx0:3_idx1:182_idx2:546   log                    factor                1.0000000000E+00      8.0000000000E-01      1.2000000000E+00       chd                   1.0000000000E+00      0.0000000000E+00      1          
 chd__:0_usecol:3_idx0:0_idx1:652_idx2:419   log                    factor                1.0000000000E+00      8.0000000000E-01      1.2000000000E+00       chd                   1.0000000000E+00      0.0000000000E+00      1          
 chd__:0_usecol:3_idx0:2_idx1:182_idx2:546   log                    factor                1.0000000000E+00      8.0000000000E-01      1.2000000000E+00       chd                   1.0000000000E+00      0.0000000000E+00      1          
 chd__:0_usecol:3_idx0:3_idx1:651_idx2:418   log                    factor                1.0000000000E+00      8.0000000000E-01      1.2000000000E+00       chd                   1.0000000000E+00      0.0000000000E+00      1          
 chd__:0_usecol:3_idx0:2_idx1:652_idx2:420   log                    factor                1.0000000000E+00      8.0000000000E-01      1.2000000000E+00       chd                   1.0000000000E+00      0.0000000000E+00      1          
 chd__:0_usecol:3_idx0:3_idx1:182_idx2:544   log                    factor                1.0000000000E+00      8.0000000000E-01      1.2000000000E+00       chd                   1.0000000000E+00      0.0000000000E+00      1          
 chd__:0_usecol:3_idx0:2_idx1:183_idx2:554   log                    factor                1.0000000000E+00      8.0000000000E-01      1.2000000000E+00       chd                   1.0000000000E+00      0.0000000000E+00      1          
 chd__:0_usecol:3_idx0:3_idx1:181_idx2:541   log                    factor                1.0000000000E+00      8.0000000000E-01      1.2000000000E+00       chd                   1.0000000000E+00      0.0000000000E+00      1          
 chd__:0_usecol:3_idx0:0_idx1:656_idx2:429   log                    factor                1.0000000000E+00      8.0000000000E-01      1.2000000000E+00       chd                   1.0000000000E+00      0.0000000000E+00      1          
 chd__:0_usecol:3_idx0:2_idx1:181_idx2:551   log                    factor                1.0000000000E+00      8.0000000000E-01      1.2000000000E+00       chd                   1.0000000000E+00      0.0000000000E+00      1          
 chd__:0_usecol:3_idx0:1_idx1:649_idx2:414   log                    factor                1.0000000000E+00      8.0000000000E-01      1.2000000000E+00       chd                   1.0000000000E+00      0.0000000000E+00      1          
 chd__:0_usecol:3_idx0:0_idx1:646_idx2:407   log                    factor                1.0000000000E+00      8.0000000000E-01      1.2000000000E+00       chd                   1.0000000000E+00      0.0000000000E+00      1          
   chd__:0_usecol:3_idx0:3_idx1:81_idx2:85   log                    factor                1.0000000000E+00      8.0000000000E-01      1.2000000000E+00       chd                   1.0000000000E+00      0.0000000000E+00      1          
 chd__:0_usecol:3_idx0:3_idx1:640_idx2:395   log                    factor                1.0000000000E+00      8.0000000000E-01      1.2000000000E+00       chd                   1.0000000000E+00      0.0000000000E+00      1          
 chd__:0_usecol:3_idx0:0_idx1:648_idx2:411   log                    factor                1.0000000000E+00      8.0000000000E-01      1.2000000000E+00       chd                   1.0000000000E+00      0.0000000000E+00      1          
   chd__:0_usecol:3_idx0:3_idx1:86_idx2:81   log                    factor                1.0000000000E+00      8.0000000000E-01      1.2000000000E+00       chd                   1.0000000000E+00      0.0000000000E+00      1          
 chd__:0_usecol:3_idx0:3_idx1:643_idx2:400   log                    factor                1.0000000000E+00      8.0000000000E-01      1.2000000000E+00       chd                   1.0000000000E+00      0.0000000000E+00      1          
 chd__:0_usecol:3_idx0:0_idx1:653_idx2:422   log                    factor                1.0000000000E+00      8.0000000000E-01      1.2000000000E+00       chd                   1.0000000000E+00      0.0000000000E+00      1          
 chd__:0_usecol:3_idx0:3_idx1:649_idx2:413   log                    factor                1.0000000000E+00      8.0000000000E-01      1.2000000000E+00       chd                   1.0000000000E+00      0.0000000000E+00      1          
 chd__:0_usecol:3_idx0:1_idx1:655_idx2:427   log                    factor                1.0000000000E+00      8.0000000000E-01      1.2000000000E+00       chd                   1.0000000000E+00      0.0000000000E+00      1          
 chd__:0_usecol:3_idx0:3_idx1:653_idx2:423   log                    factor                1.0000000000E+00      8.0000000000E-01      1.2000000000E+00       chd                   1.0000000000E+00      0.0000000000E+00      1          
 chd__:0_usecol:3_idx0:1_idx1:181_idx2:551   log                    factor                1.0000000000E+00      8.0000000000E-01      1.2000000000E+00       chd                   1.0000000000E+00      0.0000000000E+00      1          
 chd__:0_usecol:3_idx0:3_idx1:655_idx2:426   log                    factor                1.0000000000E+00      8.0000000000E-01      1.2000000000E+00       chd                   1.0000000000E+00      0.0000000000E+00      1          
 chd__:0_usecol:3_idx0:3_idx1:181_idx2:547   log                    factor                1.0000000000E+00      8.0000000000E-01      1.2000000000E+00       chd                   1.0000000000E+00      0.0000000000E+00      1          
   chd__:0_usecol:3_idx0:3_idx1:88_idx2:79   log                    factor                1.0000000000E+00      8.0000000000E-01      1.2000000000E+00       chd                   1.0000000000E+00      0.0000000000E+00      1          
 chd__:0_usecol:3_idx0:0_idx1:643_idx2:401   log                    factor                1.0000000000E+00      8.0000000000E-01      1.2000000000E+00       chd                   1.0000000000E+00      0.0000000000E+00      1          
 chd__:0_usecol:3_idx0:1_idx1:183_idx2:559   log                    factor                1.0000000000E+00      8.0000000000E-01      1.2000000000E+00       chd                   1.0000000000E+00      0.0000000000E+00      1          
 chd__:0_usecol:3_idx0:3_idx1:184_idx2:556   log                    factor                1.0000000000E+00      8.0000000000E-01      1.2000000000E+00       chd                   1.0000000000E+00      0.0000000000E+00      1          
   chd__:0_usecol:3_idx0:3_idx1:90_idx2:78   log                    factor                1.0000000000E+00      8.0000000000E-01      1.2000000000E+00       chd                   1.0000000000E+00      0.0000000000E+00      1          
 chd__:0_usecol:3_idx0:1_idx1:651_idx2:418   log                    factor                1.0000000000E+00      8.0000000000E-01      1.2000000000E+00       chd                   1.0000000000E+00      0.0000000000E+00      1          
 chd__:0_usecol:3_idx0:3_idx1:181_idx2:549   log                    factor                1.0000000000E+00      8.0000000000E-01      1.2000000000E+00       chd                   1.0000000000E+00      0.0000000000E+00      1          
 chd__:0_usecol:3_idx0:2_idx1:647_idx2:410   log                    factor                1.0000000000E+00      8.0000000000E-01      1.2000000000E+00       chd                   1.0000000000E+00      0.0000000000E+00      1          
 chd__:0_usecol:3_idx0:3_idx1:184_idx2:558   log                    factor                1.0000000000E+00      8.0000000000E-01      1.2000000000E+00       chd                   1.0000000000E+00      0.0000000000E+00      1          
 chd__:0_usecol:3_idx0:0_idx1:655_idx2:426   log                    factor                1.0000000000E+00      8.0000000000E-01      1.2000000000E+00       chd                   1.0000000000E+00      0.0000000000E+00      1          
 chd__:0_usecol:3_idx0:3_idx1:181_idx2:551   log                    factor                1.0000000000E+00      8.0000000000E-01      1.2000000000E+00       chd                   1.0000000000E+00      0.0000000000E+00      1          
 chd__:0_usecol:3_idx0:2_idx1:184_idx2:557   log                    factor                1.0000000000E+00      8.0000000000E-01      1.2000000000E+00       chd                   1.0000000000E+00      0.0000000000E+00      1          
 chd__:0_usecol:3_idx0:3_idx1:180_idx2:540   log                    factor                1.0000000000E+00      8.0000000000E-01      1.2000000000E+00       chd                   1.0000000000E+00      0.0000000000E+00      1          
 chd__:0_usecol:3_idx0:3_idx1:642_idx2:398   log                    factor                1.0000000000E+00      8.0000000000E-01      1.2000000000E+00       chd                   1.0000000000E+00      0.0000000000E+00      1          
 chd__:0_usecol:3_idx0:3_idx1:182_idx2:562   log                    factor                1.0000000000E+00      8.0000000000E-01      1.2000000000E+00       chd                   1.0000000000E+00      0.0000000000E+00      1          
 chd__:0_usecol:3_idx0:3_idx1:650_idx2:416   log                    factor                1.0000000000E+00      8.0000000000E-01      1.2000000000E+00       chd                   1.0000000000E+00      0.0000000000E+00      1          
 chd__:0_usecol:3_idx0:2_idx1:653_idx2:423   log                    factor                1.0000000000E+00      8.0000000000E-01      1.2000000000E+00       chd                   1.0000000000E+00      0.0000000000E+00      1          
 chd__:0_usecol:3_idx0:3_idx1:648_idx2:411   log                    factor                1.0000000000E+00      8.0000000000E-01      1.2000000000E+00       chd                   1.0000000000E+00      0.0000000000E+00      1          
 chd__:0_usecol:3_idx0:0_idx1:651_idx2:418   log                    factor                1.0000000000E+00      8.0000000000E-01      1.2000000000E+00       chd                   1.0000000000E+00      0.0000000000E+00      1          
 chd__:0_usecol:3_idx0:0_idx1:640_idx2:395   log                    factor                1.0000000000E+00      8.0000000000E-01      1.2000000000E+00       chd                   1.0000000000E+00      0.0000000000E+00      1          
 chd__:0_usecol:3_idx0:3_idx1:182_idx2:560   log                    factor                1.0000000000E+00      8.0000000000E-01      1.2000000000E+00       chd                   1.0000000000E+00      0.0000000000E+00      1          
 chd__:0_usecol:3_idx0:1_idx1:653_idx2:422   log                    factor                1.0000000000E+00      8.0000000000E-01      1.2000000000E+00       chd                   1.0000000000E+00      0.0000000000E+00      1          
 chd__:0_usecol:3_idx0:2_idx1:653_idx2:421   log                    factor                1.0000000000E+00      8.0000000000E-01      1.2000000000E+00       chd                   1.0000000000E+00      0.0000000000E+00      1          
 chd__:0_usecol:3_idx0:3_idx1:646_idx2:408   log                    factor                1.0000000000E+00      8.0000000000E-01      1.2000000000E+00       chd                   1.0000000000E+00      0.0000000000E+00      1          
 chd__:0_usecol:3_idx0:3_idx1:639_idx2:393   log                    factor                1.0000000000E+00      8.0000000000E-01      1.2000000000E+00       chd                   1.0000000000E+00      0.0000000000E+00      1          
 chd__:0_usecol:3_idx0:3_idx1:183_idx2:555   log                    factor                1.0000000000E+00      8.0000000000E-01      1.2000000000E+00       chd                   1.0000000000E+00      0.0000000000E+00      1          
   chd__:0_usecol:3_idx0:0_idx1:87_idx2:80   log                    factor                1.0000000000E+00      8.0000000000E-01      1.2000000000E+00       chd                   1.0000000000E+00      0.0000000000E+00      1          
   chd__:0_usecol:3_idx0:3_idx1:87_idx2:80   log                    factor                1.0000000000E+00      8.0000000000E-01      1.2000000000E+00       chd                   1.0000000000E+00      0.0000000000E+00      1          
 chd__:0_usecol:3_idx0:3_idx1:653_idx2:421   log                    factor                1.0000000000E+00      8.0000000000E-01      1.2000000000E+00       chd                   1.0000000000E+00      0.0000000000E+00      1          
 chd__:0_usecol:3_idx0:0_idx1:649_idx2:414   log                    factor                1.0000000000E+00      8.0000000000E-01      1.2000000000E+00       chd                   1.0000000000E+00      0.0000000000E+00      1          
 chd__:0_usecol:3_idx0:1_idx1:654_idx2:424   log                    factor                1.0000000000E+00      8.0000000000E-01      1.2000000000E+00       chd                   1.0000000000E+00      0.0000000000E+00      1          
 chd__:0_usecol:3_idx0:3_idx1:433_idx2:209   log                    factor                1.0000000000E+00      8.0000000000E-01      1.2000000000E+00       chd                   1.0000000000E+00      0.0000000000E+00      1          
   chd__:0_usecol:3_idx0:0_idx1:85_idx2:81   log                    factor                1.0000000000E+00      8.0000000000E-01      1.2000000000E+00       chd                   1.0000000000E+00      0.0000000000E+00      1          
 chd__:0_usecol:3_idx0:2_idx1:649_idx2:414   log                    factor                1.0000000000E+00      8.0000000000E-01      1.2000000000E+00       chd                   1.0000000000E+00      0.0000000000E+00      1          
 chd__:0_usecol:3_idx0:3_idx1:652_idx2:419   log                    factor                1.0000000000E+00      8.0000000000E-01      1.2000000000E+00       chd                   1.0000000000E+00      0.0000000000E+00      1          