pcf
* control data
             restart          estimation
      5087       526        15         0         4         0
        21         1              single               point         1         0         0          noobsreref
   2.000000E+01  -3.000000E+00   3.000000E-01   1.000000E-02        -7       999          lamforgive        noderforgive
   1.000000E+01   1.000000E+01   1.000000E-03         0         0
   1.000000E-01         1   1.100000E+00               noaui          nosenreuse        noboundscale
         0   1.000000E-02         3         3   1.000000E-02         3   0.000000E+00         1  -1.000000E+00
         0         0         0         0             jcosave          verboserec          jcosaveitn          reisaveitn          parsaveitn        noparsaverun
* singular value decomposition
         1
       250    1.000000E-06
1
* parameter groups
sfrk                   relative              1.0000000000E-02      0.0 switch                2.0000000000E+00      parabolic             1.0000000000E-05      5.0000000000E-01      smaller              
k33_pp_:1              relative              1.0000000000E-02      0.0 switch                2.0000000000E+00      parabolic             1.0000000000E-05      5.0000000000E-01      smaller              
k_pp_:1                relative              1.0000000000E-02      0.0 switch                2.0000000000E+00      parabolic             1.0000000000E-05      5.0000000000E-01      smaller              
k_pp_:2                relative              1.0000000000E-02      0.0 switch                2.0000000000E+00      parabolic             1.0000000000E-05      5.0000000000E-01      smaller              
k33_pp_:2              relative              1.0000000000E-02      0.0 switch                2.0000000000E+00      parabolic             1.0000000000E-05      5.0000000000E-01      smaller              
k_pp_:3                relative              1.0000000000E-02      0.0 switch                2.0000000000E+00      parabolic             1.0000000000E-05      5.0000000000E-01      smaller              
rch_pp_:0              relative              1.0000000000E-02      0.0 switch                2.0000000000E+00      parabolic             1.0000000000E-05      5.0000000000E-01      smaller              
k33_pp_:3              relative              1.0000000000E-02      0.0 switch                2.0000000000E+00      parabolic             1.0000000000E-05      5.0000000000E-01      smaller              
k_pp_:0                relative              1.0000000000E-02      0.0 switch                2.0000000000E+00      parabolic             1.0000000000E-05      5.0000000000E-01      smaller              
k33_pp_:0              relative              1.0000000000E-02      0.0 switch                2.0000000000E+00      parabolic             1.0000000000E-05      5.0000000000E-01      smaller              
chd                    relative              1.0000000000E-02      0.0 switch                2.0000000000E+00      parabolic             1.0000000000E-05      5.0000000000E-01      smaller              
zn_k__multiplier       relative              1.0000000000E-02      0.0 switch                2.0000000000E+00      parabolic             1.0000000000E-05      5.0000000000E-01      smaller              
zn_k33__multiplier     relative              1.0000000000E-02      0.0 switch                2.0000000000E+00      parabolic             1.0000000000E-05      5.0000000000E-01      smaller              
wel                    relative              1.0000000000E-02      0.0 switch                2.0000000000E+00      parabolic             1.0000000000E-05      5.0000000000E-01      smaller              
pp_rch__multiplier     relative              1.0000000000E-02      0.0 switch                2.0000000000E+00      parabolic             1.0000000000E-05      5.0000000000E-01      smaller              
* parameter data
wel__:0_usecol:3_idx0:0_idx1:225_idx2:185  log                   factor                1.0041200000E+00      9.3120000000E-01      1.0665350000E+00      wel                   1.0000000000E+00      0.0000000000E+00      1          
wel__:0_usecol:3_idx0:0_idx1:556_idx2:459  log                   factor                9.8625500000E-01      9.2041750000E-01      1.0646100000E+00      wel                   1.0000000000E+00      0.0000000000E+00      1          
wel__:0_usecol:3_idx0:3_idx1:260_idx2:180  log                   factor                1.0011000000E+00      9.2499750000E-01      1.0613050000E+00      wel                   1.0000000000E+00      0.0000000000E+00      1          
wel__:0_usecol:3_idx0:2_idx1:249_idx2:181  log                   factor                1.0065400000E+00      9.4381400000E-01      1.0749200000E+00      wel                   1.0000000000E+00      0.0000000000E+00      1          
wel__:0_usecol:3_idx0:1_idx1:249_idx2:536  log                   factor                9.9875700000E-01      9.3336600000E-01      1.0596150000E+00      wel                   1.0000000000E+00      0.0000000000E+00      1          
wel__:0_usecol:3_idx0:1_idx1:248_idx2:536  log                   factor                9.8627300000E-01      9.3264000000E-01      1.0419600000E+00      wel                   1.0000000000E+00      0.0000000000E+00      1          
wel__:0_usecol:3_idx0:0_idx1:299_idx2:255  log                   factor                1.0000000000E+00      9.2525750000E-01      1.0588300000E+00      wel                   1.0000000000E+00      0.0000000000E+00      1          
wel__:0_usecol:3_idx0:3_idx1:236_idx2:185  log                   factor                9.9728800000E-01      9.2750050000E-01      1.0730450000E+00      wel                   1.0000000000E+00      0.0000000000E+00      1          
wel__:0_usecol:3_idx0:0_idx1:248_idx2:181  log                   factor                9.9949200000E-01      9.3452000000E-01      1.0601600000E+00      wel                   1.0000000000E+00      0.0000000000E+00      1          
wel__:0_usecol:3_idx0:3_idx1:237_idx2:198  log                   factor                9.8827300000E-01      9.2650300000E-01      1.0646450000E+00      wel                   1.0000000000E+00      0.0000000000E+00      1          
wel__:0_usecol:3_idx0:2_idx1:322_idx2:291  log                   factor                1.0021100000E+00      9.4376400000E-01      1.0698350000E+00      wel                   1.0000000000E+00      0.0000000000E+00      1          
wel__:0_usecol:3_idx0:3_idx1:557_idx2:459  log                   factor                9.9905000000E-01      9.3612100000E-01      1.0736650000E+00      wel                   1.0000000000E+00      0.0000000000E+00      1          
wel__:0_usecol:3_idx0:3_idx1:226_idx2:185  log                   factor                9.9415300000E-01      9.2738050000E-01      1.0756100000E+00      wel                   1.0000000000E+00      0.0000000000E+00      1          
wel__:0_usecol:3_idx0:3_idx1:143_idx2:216  log                   factor                1.0070600000E+00      9.2896900000E-01      1.0682550000E+00      wel                   1.0000000000E+00      0.0000000000E+00      1          
wel__:0_usecol:3_idx0:2_idx1:324_idx2:218  log                   factor                1.0106000000E+00      9.4143000000E-01      1.0866550000E+00      wel                   1.0000000000E+00      0.0000000000E+00      1          
wel__:0_usecol:3_idx0:3_idx1:143_idx2:215  log                   factor                1.0145100000E+00      9.3914000000E-01      1.0913250000E+00      wel                   1.0000000000E+00      0.0000000000E+00      1          
wel__:0_usecol:3_idx0:3_idx1:299_idx2:255  log                   factor                1.0027300000E+00      9.4201350000E-01      1.0723700000E+00      wel                   1.0000000000E+00      0.0000000000E+00      1          
wel__:0_usecol:3_idx0:1_idx1:247_idx2:538  log                   factor                9.8750100000E-01      9.2854300000E-01      1.0626300000E+00      wel                   1.0000000000E+00      0.0000000000E+00      1          
wel__:0_usecol:3_idx0:3_idx1:234_idx2:186  log                   factor                9.9452700000E-01      9.1865200000E-01      1.0584950000E+00      wel                   1.0000000000E+00      0.0000000000E+00      1          
wel__:0_usecol:3_idx0:1_idx1:228_idx2:536  log                   factor                1.0079300000E+00      9.4649050000E-01      1.0763100000E+00      wel                   1.0000000000E+00      0.0000000000E+00      1          
wel__:0_usecol:3_idx0:3_idx1:223_idx2:202  log                   factor                9.9409700000E-01      9.2815050000E-01      1.0722050000E+00      wel                   1.0000000000E+00      0.0000000000E+00      1          
wel__:0_usecol:3_idx0:3_idx1:165_idx2:157  log                   factor                1.0000000000E+00      9.4673300000E-01      1.0698200000E+00      wel                   1.0000000000E+00      0.0000000000E+00      1          
wel__:0_usecol:3_idx0:3_idx1:234_idx2:183  log                   factor                9.9902200000E-01      9.2839300000E-01      1.0700400000E+00      wel                   1.0000000000E+00      0.0000000000E+00      1          
wel__:0_usecol:3_idx0:3_idx1:376_idx2:482  log                   factor                9.9736200000E-01      9.3878950000E-01      1.0597300000E+00      wel                   1.0000000000E+00      0.0000000000E+00      1          
wel__:0_usecol:3_idx0:3_idx1:218_idx2:178  log                   factor                9.9071900000E-01      9.2556800000E-01      1.0645550000E+00      wel                   1.0000000000E+00      0.0000000000E+00      1          
wel__:0_usecol:3_idx0:3_idx1:328_idx2:317  log                   factor                1.0009600000E+00      9.4556400000E-01      1.0665700000E+00      wel                   1.0000000000E+00      0.0000000000E+00      1          
wel__:0_usecol:3_idx0:1_idx1:579_idx2:458  log                   factor                1.0094700000E+00      9.4072000000E-01      1.0696600000E+00      wel                   1.0000000000E+00      0.0000000000E+00      1          
wel__:0_usecol:3_idx0:0_idx1:346_idx2:208  log                   factor                9.9404800000E-01      9.3049950000E-01      1.0720550000E+00      wel                   1.0000000000E+00      0.0000000000E+00      1          
wel__:0_usecol:3_idx0:2_idx1:301_idx2:174  log                   factor                9.9898900000E-01      9.3388000000E-01      1.0678900000E+00      wel                   1.0000000000E+00      0.0000000000E+00      1          
wel__:0_usecol:3_idx0:3_idx1:285_idx2:352  log                   factor                1.0001200000E+00      9.3175200000E-01      1.0642800000E+00      wel                   1.0000000000E+00      0.0000000000E+00      1          
wel__:0_usecol:3_idx0:3_idx1:245_idx2:182  log                   factor                1.0023700000E+00      9.3466750000E-01      1.0750800000E+00      wel                   1.0000000000E+00      0.0000000000E+00      1          
chd__:0_usecol:3_idx0:2_idx1:181_idx2:549  fixed                 factor                1.0000000000E+00      1.0000000000E+00      1.0000000000E+00      chd                   1.0000000000E+00      0.0000000000E+00      1          
  chd__:0_usecol:3_idx0:0_idx1:84_idx2:82  fixed                 factor                1.0000000000E+00      1.0000000000E+00      1.0000000000E+00      chd                   1.0000000000E+00      0.0000000000E+00      1          
  chd__:0_usecol:3_idx0:3_idx1:82_idx2:84  fixed                 factor                1.0000000000E+00      1.0000000000E+00      1.0000000000E+00      chd                   1.0000000000E+00      0.0000000000E+00      1          
  chd__:0_usecol:3_idx0:1_idx1:86_idx2:81  fixed                 factor                1.0000000000E+00      1.0000000000E+00      1.0000000000E+00      chd                   1.0000000000E+00      0.0000000000E+00      1          
chd__:0_usecol:3_idx0:2_idx1:181_idx2:547  fixed                 factor                1.0000000000E+00      1.0000000000E+00      1.0000000000E+00      chd                   1.0000000000E+00      0.0000000000E+00      1          
chd__:0_usecol:3_idx0:1_idx1:652_idx2:420  fixed                 factor                1.0000000000E+00      1.0000000000E+00      1.0000000000E+00      chd                   1.0000000000E+00      0.0000000000E+00      1          
chd__:0_usecol:3_idx0:1_idx1:181_idx2:549  fixed                 factor                1.0000000000E+00      1.0000000000E+00      1.0000000000E+00      chd                   1.0000000000E+00      0.0000000000E+00      1          
chd__:0_usecol:3_idx0:3_idx1:641_idx2:397  fixed                 factor                1.0000000000E+00      1.0000000000E+00      1.0000000000E+00      chd                   1.0000000000E+00      0.0000000000E+00      1          
  chd__:0_usecol:3_idx0:0_idx1:86_idx2:81  fixed                 factor                1.0000000000E+00      1.0000000000E+00      1.0000000000E+00      chd                   1.0000000000E+00      0.0000000000E+00      1          
chd__:0_usecol:3_idx0:3_idx1:647_idx2:410  fixed                 factor                1.0000000000E+00      1.0000000000E+00      1.0000000000E+00      chd                   1.0000000000E+00      0.0000000000E+00      1          
chd__:0_usecol:3_idx0:1_idx1:181_idx2:547  fixed                 factor                1.0000000000E+00      1.0000000000E+00      1.0000000000E+00      chd                   1.0000000000E+00      0.0000000000E+00      1          
chd__:0_usecol:3_idx0:0_idx1:641_idx2:397  fixed                 factor                1.0000000000E+00      1.0000000000E+00      1.0000000000E+00      chd                   1.0000000000E+00      0.0000000000E+00      1          
chd__:0_usecol:3_idx0:2_idx1:648_idx2:411  fixed                 factor                1.0000000000E+00      1.0000000000E+00      1.0000000000E+00      chd                   1.0000000000E+00      0.0000000000E+00      1          
chd__:0_usecol:3_idx0:1_idx1:182_idx2:544  fixed                 factor                1.0000000000E+00      1.0000000000E+00      1.0000000000E+00      chd                   1.0000000000E+00      0.0000000000E+00      1          
chd__:0_usecol:3_idx0:1_idx1:183_idx2:554  fixed                 factor                1.0000000000E+00      1.0000000000E+00      1.0000000000E+00      chd                   1.0000000000E+00      0.0000000000E+00      1          
chd__:0_usecol:3_idx0:3_idx1:432_idx2:208  fixed                 factor                1.0000000000E+00      1.0000000000E+00      1.0000000000E+00      chd                   1.0000000000E+00      0.0000000000E+00      1          
chd__:0_usecol:3_idx0:0_idx1:650_idx2:415  fixed                 factor                1.0000000000E+00      1.0000000000E+00      1.0000000000E+00      chd                   1.0000000000E+00      0.0000000000E+00      1          
chd__:0_usecol:3_idx0:1_idx1:182_idx2:546  fixed                 factor                1.0000000000E+00      1.0000000000E+00      1.0000000000E+00      chd                   1.0000000000E+00      0.0000000000E+00      1          
chd__:0_usecol:3_idx0:0_idx1:654_idx2:425  fixed                 factor                1.0000000000E+00      1.0000000000E+00      1.0000000000E+00      chd                   1.0000000000E+00      0.0000000000E+00      1          
chd__:0_usecol:3_idx0:0_idx1:639_idx2:393  fixed                 factor                1.0000000000E+00      1.0000000000E+00      1.0000000000E+00      chd                   1.0000000000E+00      0.0000000000E+00      1          
chd__:0_usecol:3_idx0:1_idx1:650_idx2:416  fixed                 factor                1.0000000000E+00      1.0000000000E+00      1.0000000000E+00      chd                   1.0000000000E+00      0.0000000000E+00      1          
chd__:0_usecol:3_idx0:3_idx1:182_idx2:546  fixed                 factor                1.0000000000E+00      1.0000000000E+00      1.0000000000E+00      chd                   1.0000000000E+00      0.0000000000E+00      1          
chd__:0_usecol:3_idx0:0_idx1:652_idx2:419  fixed                 factor                1.0000000000E+00      1.0000000000E+00      1.0000000000E+00      chd                   1.0000000000E+00      0.0000000000E+00      1          
chd__:0_usecol:3_idx0:2_idx1:182_idx2:546  fixed                 factor                1.0000000000E+00      1.0000000000E+00      1.0000000000E+00      chd                   1.0000000000E+00      0.0000000000E+00      1          
chd__:0_usecol:3_idx0:3_idx1:651_idx2:418  fixed                 factor                1.0000000000E+00      1.0000000000E+00      1.0000000000E+00      chd                   1.0000000000E+00      0.0000000000E+00      1          
chd__:0_usecol:3_idx0:2_idx1:652_idx2:420  fixed                 factor                1.0000000000E+00      1.0000000000E+00      1.0000000000E+00      chd                   1.0000000000E+00      0.0000000000E+00      1          
chd__:0_usecol:3_idx0:3_idx1:182_idx2:544  fixed                 factor                1.0000000000E+00      1.0000000000E+00      1.0000000000E+00      chd                   1.0000000000E+00      0.0000000000E+00      1          
chd__:0_usecol:3_idx0:2_idx1:183_idx2:554  fixed                 factor                1.0000000000E+00      1.0000000000E+00      1.0000000000E+00      chd                   1.0000000000E+00      0.0000000000E+00      1          
chd__:0_usecol:3_idx0:3_idx1:181_idx2:541  fixed                 factor                1.0000000000E+00      1.0000000000E+00      1.0000000000E+00      chd                   1.0000000000E+00      0.0000000000E+00      1          
chd__:0_usecol:3_idx0:0_idx1:656_idx2:429  fixed                 factor                1.0000000000E+00      1.0000000000E+00      1.0000000000E+00      chd                   1.0000000000E+00      0.0000000000E+00      1          
chd__:0_usecol:3_idx0:2_idx1:181_idx2:551  fixed                 factor                1.0000000000E+00      1.0000000000E+00      1.0000000000E+00      chd                   1.0000000000E+00      0.0000000000E+00      1          
chd__:0_usecol:3_idx0:1_idx1:649_idx2:414  fixed                 factor                1.0000000000E+00      1.0000000000E+00      1.0000000000E+00      chd                   1.0000000000E+00      0.0000000000E+00      1          
chd__:0_usecol:3_idx0:0_idx1:646_idx2:407  fixed                 factor                1.0000000000E+00      1.0000000000E+00      1.0000000000E+00      chd                   1.0000000000E+00      0.0000000000E+00      1          
  chd__:0_usecol:3_idx0:3_idx1:81_idx2:85  fixed                 factor                1.0000000000E+00      1.0000000000E+00      1.0000000000E+00      chd                   1.0000000000E+00      0.0000000000E+00      1          
chd__:0_usecol:3_idx0:3_idx1:640_idx2:395  fixed                 factor                1.0000000000E+00      1.0000000000E+00      1.0000000000E+00      chd                   1.0000000000E+00      0.0000000000E+00      1          
chd__:0_usecol:3_idx0:0_idx1:648_idx2:411  fixed                 factor                1.0000000000E+00      1.0000000000E+00      1.0000000000E+00      chd                   1.0000000000E+00      0.0000000000E+00      1          
  chd__:0_usecol:3_idx0:3_idx1:86_idx2:81  fixed                 factor                1.0000000000E+00      1.0000000000E+00      1.0000000000E+00      chd                   1.0000000000E+00      0.0000000000E+00      1          
chd__:0_usecol:3_idx0:3_idx1:643_idx2:400  fixed                 factor                1.0000000000E+00      1.0000000000E+00      1.0000000000E+00      chd                   1.0000000000E+00      0.0000000000E+00      1          
chd__:0_usecol:3_idx0:0_idx1:653_idx2:422  fixed                 factor                1.0000000000E+00      1.0000000000E+00      1.0000000000E+00      chd                   1.0000000000E+00      0.0000000000E+00      1          
chd__:0_usecol:3_idx0:3_idx1:649_idx2:413  fixed                 factor                1.0000000000E+00      1.0000000000E+00      1.0000000000E+00      chd                   1.0000000000E+00      0.0000000000E+00      1          
chd__:0_usecol:3_idx0:1_idx1:655_idx2:427  fixed                 factor                1.0000000000E+00      1.0000000000E+00      1.0000000000E+00      chd                   1.0000000000E+00      0.0000000000E+00      1          
chd__:0_usecol:3_idx0:3_idx1:653_idx2:423  fixed                 factor                1.0000000000E+00      1.0000000000E+00      1.0000000000E+00      chd                   1.0000000000E+00      0.0000000000E+00      1          
chd__:0_usecol:3_idx0:1_idx1:181_idx2:551  fixed                 factor                1.0000000000E+00      1.0000000000E+00      1.0000000000E+00      chd                   1.0000000000E+00      0.0000000000E+00      1          
chd__:0_usecol:3_idx0:3_idx1:655_idx2:426  fixed                 factor                1.0000000000E+00      1.0000000000E+00      1.0000000000E+00      chd                   1.0000000000E+00      0.0000000000E+00      1          
chd__:0_usecol:3_idx0:3_idx1:181_idx2:547  fixed                 factor                1.0000000000E+00      1.0000000000E+00      1.0000000000E+00      chd                   1.0000000000E+00      0.0000000000E+00      1          
  chd__:0_usecol:3_idx0:3_idx1:88_idx2:79  fixed                 factor                1.0000000000E+00      1.0000000000E+00      1.0000000000E+00      chd                   1.0000000000E+00      0.0000000000E+00      1          
chd__:0_usecol:3_idx0:0_idx1:643_idx2:401  fixed                 factor                1.0000000000E+00      1.0000000000E+00      1.0000000000E+00      chd                   1.0000000000E+00      0.0000000000E+00      1          
chd__:0_usecol:3_idx0:1_idx1:183_idx2:559  fixed                 factor                1.0000000000E+00      1.0000000000E+00      1.0000000000E+00      chd                   1.0000000000E+00      0.0000000000E+00      1          
chd__:0_usecol:3_idx0:3_idx1:184_idx2:556  fixed                 factor                1.0000000000E+00      1.0000000000E+00      1.0000000000E+00      chd                   1.0000000000E+00      0.0000000000E+00      1          
  chd__:0_usecol:3_idx0:3_idx1:90_idx2:78  fixed                 factor                1.0000000000E+00      1.0000000000E+00      1.0000000000E+00      chd                   1.0000000000E+00      0.0000000000E+00      1          
chd__:0_usecol:3_idx0:1_idx1:651_idx2:418  fixed                 factor                1.0000000000E+00      1.0000000000E+00      1.0000000000E+00      chd                   1.0000000000E+00      0.0000000000E+00      1          
chd__:0_usecol:3_idx0:3_idx1:181_idx2:549  fixed                 factor                1.0000000000E+00      1.0000000000E+00      1.0000000000E+00      chd                   1.0000000000E+00      0.0000000000E+00      1          
chd__:0_usecol:3_idx0:2_idx1:647_idx2:410  fixed                 factor                1.0000000000E+00      1.0000000000E+00      1.0000000000E+00      chd                   1.0000000000E+00      0.0000000000E+00      1          
chd__:0_usecol:3_idx0:3_idx1:184_idx2:558  fixed                 factor                1.0000000000E+00      1.0000000000E+00      1.0000000000E+00      chd                   1.0000000000E+00      0.0000000000E+00      1          
chd__:0_usecol:3_idx0:0_idx1:655_idx2:426  fixed                 factor                1.0000000000E+00      1.0000000000E+00      1.0000000000E+00      chd                   1.0000000000E+00      0.0000000000E+00      1          
chd__:0_usecol:3_idx0:3_idx1:181_idx2:551  fixed                 factor                1.0000000000E+00      1.0000000000E+00      1.0000000000E+00      chd                   1.0000000000E+00      0.0000000000E+00      1          
chd__:0_usecol:3_idx0:2_idx1:184_idx2:557  fixed                 factor                1.0000000000E+00      1.0000000000E+00      1.0000000000E+00      chd                   1.0000000000E+00      0.0000000000E+00      1          
chd__:0_usecol:3_idx0:3_idx1:180_idx2:540  fixed                 factor                1.0000000000E+00      1.0000000000E+00      1.0000000000E+00      chd                   1.0000000000E+00      0.0000000000E+00      1          
chd__:0_usecol:3_idx0:3_idx1:642_idx2:398  fixed                 factor                1.0000000000E+00      1.0000000000E+00      1.0000000000E+00      chd                   1.0000000000E+00      0.0000000000E+00      1          
chd__:0_usecol:3_idx0:3_idx1:182_idx2:562  fixed                 factor                1.0000000000E+00      1.0000000000E+00      1.0000000000E+00      chd                   1.0000000000E+00      0.0000000000E+00      1          
chd__:0_usecol:3_idx0:3_idx1:650_idx2:416  fixed                 factor                1.0000000000E+00      1.0000000000E+00      1.0000000000E+00      chd                   1.0000000000E+00      0.0000000000E+00      1          
chd__:0_usecol:3_idx0:2_idx1:653_idx2:423  fixed                 factor                1.0000000000E+00      1.0000000000E+00      1.0000000000E+00      chd                   1.0000000000E+00      0.0000000000E+00      1          
chd__:0_usecol:3_idx0:3_idx1:648_idx2:411  fixed                 factor                1.0000000000E+00      1.0000000000E+00      1.0000000000E+00      chd                   1.0000000000E+00      0.0000000000E+00      1          
chd__:0_usecol:3_idx0:0_idx1:651_idx2:418  fixed                 factor                1.0000000000E+00      1.0000000000E+00      1.0000000000E+00      chd                   1.0000000000E+00      0.0000000000E+00      1          
chd__:0_usecol:3_idx0:0_idx1:640_idx2:395  fixed                 factor                1.0000000000E+00      1.0000000000E+00      1.0000000000E+00      chd                   1.0000000000E+00      0.0000000000E+00      1          
chd__:0_usecol:3_idx0:3_idx1:182_idx2:560  fixed                 factor                1.0000000000E+00      1.0000000000E+00      1.0000000000E+00      chd                   1.0000000000E+00      0.0000000000E+00      1          
chd__:0_usecol:3_idx0:1_idx1:653_idx2:422  fixed                 factor                1.0000000000E+00      1.0000000000E+00      1.0000000000E+00      chd                   1.0000000000E+00      0.0000000000E+00      1          
chd__:0_usecol:3_idx0:2_idx1:653_idx2:421  fixed                 factor                1.0000000000E+00      1.0000000000E+00      1.0000000000E+00      chd                   1.0000000000E+00      0.0000000000E+00      1          
chd__:0_usecol:3_idx0:3_idx1:646_idx2:408  fixed                 factor                1.0000000000E+00      1.0000000000E+00      1.0000000000E+00      chd                   1.0000000000E+00      0.0000000000E+00      1          
chd__:0_usecol:3_idx0:3_idx1:639_idx2:393  fixed                 factor                1.0000000000E+00      1.0000000000E+00      1.0000000000E+00      chd                   1.0000000000E+00      0.0000000000E+00      1          
chd__:0_usecol:3_idx0:3_idx1:183_idx2:555  fixed                 factor                1.0000000000E+00      1.0000000000E+00      1.0000000000E+00      chd                   1.0000000000E+00      0.0000000000E+00      1          
  chd__:0_usecol:3_idx0:0_idx1:87_idx2:80  fixed                 factor                1.0000000000E+00      1.0000000000E+00      1.0000000000E+00      chd                   1.0000000000E+00      0.0000000000E+00      1          
  chd__:0_usecol:3_idx0:3_idx1:87_idx2:80  fixed                 factor                1.0000000000E+00      1.0000000000E+00      1.0000000000E+00      chd                   1.0000000000E+00      0.0000000000E+00      1          
chd__:0_usecol:3_idx0:3_idx1:653_idx2:421  fixed                 factor                1.0000000000E+00      1.0000000000E+00      1.0000000000E+00      chd                   1.0000000000E+00      0.0000000000E+00      1          
chd__:0_usecol:3_idx0:0_idx1:649_idx2:414  fixed                 factor                1.0000000000E+00      1.0000000000E+00      1.0000000000E+00      chd                   1.0000000000E+00      0.0000000000E+00      1          
chd__:0_usecol:3_idx0:1_idx1:654_idx2:424  fixed                 factor                1.0000000000E+00      1.0000000000E+00      1.0000000000E+00      chd                   1.0000000000E+00      0.0000000000E+00      1          
chd__:0_usecol:3_idx0:3_idx1:433_idx2:209  fixed                 factor                1.0000000000E+00      1.0000000000E+00      1.0000000000E+00      chd                   1.0000000000E+00      0.0000000000E+00      1          
  chd__:0_usecol:3_idx0:0_idx1:85_idx2:81  fixed                 factor                1.0000000000E+00      1.0000000000E+00      1.0000000000E+00      chd                   1.0000000000E+00      0.0000000000E+00      1          
chd__:0_usecol:3_idx0:2_idx1:649_idx2:414  fixed                 factor                1.0000000000E+00      1.0000000000E+00      1.0000000000E+00      chd                   1.0000000000E+00      0.0000000000E+00      1          
chd__:0_usecol:3_idx0:3_idx1:652_idx2:419  fixed                 factor                1.0000000000E+00      1.0000000000E+00      1.0000000000E+00      chd                   1.0000000000E+00      0.0000000000E+00      1          
chd__:0_usecol:3_idx0:1_idx1:656_idx2:428  fixed                 factor                1.0000000000E+00      1.0000000000E+00      1.0000000000E+00      chd                   1.0000000000E+00      0.0000000000E+00      1          