# neversink model version 0.post7.dev0+g3db0af8
# File generated by Flopy version 3.3.3 on 03/08/2021 at 18:52:10.
# via modflow-setup version 0.post229+gbea8073 at 2021-03-08 18:52:10
BEGIN options
  TIME_UNITS  days
  START_DATE_TIME  2011-01-01
END options

BEGIN dimensions
  NPER  1
END dimensions

BEGIN perioddata
  # perlen nstp tsmult
  1.00000000  1       1.00000000  # 2011-01-01 to 2011-01-02
END perioddata

