# neversink model version 0.post7.dev0+g3db0af8
# File generated by Flopy version 3.3.3 on 03/08/2021 at 18:52:10.
# via modflow-setup version 0.post229+gbea8073 at 2021-03-08 18:52:10
BEGIN options
  SAVE_FLOWS
END options

BEGIN dimensions
  MAXBOUND  2026
END dimensions

BEGIN period  1
    OPEN/CLOSE  '././chd_000.dat'
END period  1

