# neversink model version 0.post7.dev0+g3db0af8
# File generated by Flopy version 3.3.3 on 03/08/2021 at 18:52:10.
# via modflow-setup version 0.post229+gbea8073 at 2021-03-08 18:52:10
BEGIN options
  LENGTH_UNITS  meters
  XORIGIN  1.74295500E+06
  YORIGIN  2.25828500E+06
  ANGROT       0.00000000
END options

BEGIN dimensions
  NLAY  4
  NROW  680
  NCOL  619
END dimensions

BEGIN griddata
  delr
    CONSTANT      50.00000000
  delc
    CONSTANT      50.00000000
  top
    OPEN/CLOSE  '././top.dat'  FACTOR  1.0
  botm  LAYERED
    OPEN/CLOSE  '././botm_000.dat'  FACTOR  1.0
    OPEN/CLOSE  '././botm_001.dat'  FACTOR  1.0
    OPEN/CLOSE  '././botm_002.dat'  FACTOR  1.0
    OPEN/CLOSE  '././neversink_layer_5_new_botm_elevations.dat'  FACTOR  1.0
  idomain  LAYERED
    OPEN/CLOSE  '././idomain_000.dat'  FACTOR  1
    OPEN/CLOSE  '././idomain_001.dat'  FACTOR  1
    OPEN/CLOSE  '././idomain_002.dat'  FACTOR  1
    OPEN/CLOSE  '././idomain_003.dat'  FACTOR  1
END griddata

