# neversink model version 0.post7.dev0+g3db0af8
# File generated by Flopy version 3.3.3 on 03/08/2021 at 18:52:10.
# via modflow-setup version 0.post229+gbea8073 at 2021-03-08 18:52:10
BEGIN options
  DIGITS  10
  PRINT_INPUT
END options

BEGIN continuous  FILEOUT  neversink.head.obs
  414525074360601  HEAD  1 211 174
  414525074360601  HEAD  2 211 174
  414525074360601  HEAD  4 211 174
  o10577  HEAD  4 375 466
  o10942  HEAD  1 628 424
  o10942  HEAD  2 628 424
  o10942  HEAD  3 628 424
  o10942  HEAD  4 628 424
  o11068  HEAD  1 311 505
  o11068  HEAD  2 311 505
  o11068  HEAD  4 311 505
  o5124  HEAD  1 264 378
  o5124  HEAD  4 264 378
  o6269  HEAD  1 64 171
  o6269  HEAD  4 64 171
  o7421  HEAD  1 326 525
  o7421  HEAD  4 326 525
  o8073  HEAD  1 323 529
  o8073  HEAD  4 323 529
  o8419  HEAD  1 520 401
  o8419  HEAD  4 520 401
  sv1011  HEAD  1 367 501
  sv1011  HEAD  2 367 501
  sv1011  HEAD  3 367 501
  sv1011  HEAD  4 367 501
  sv1014  HEAD  4 326 260
  sv1017  HEAD  1 472 310
  sv1017  HEAD  4 472 310
  sv1029  HEAD  4 529 386
  sv1032  HEAD  1 511 411
  sv1032  HEAD  4 511 411
  sv1050  HEAD  1 83 164
  sv1050  HEAD  4 83 164
  sv1052  HEAD  1 146 264
  sv1052  HEAD  4 146 264
  sv1064  HEAD  1 494 309
  sv1064  HEAD  4 494 309
  sv1070  HEAD  1 537 412
  sv1070  HEAD  4 537 412
  sv1095  HEAD  1 418 331
  sv1095  HEAD  4 418 331
  sv1098  HEAD  1 530 479
  sv1098  HEAD  2 530 479
  sv1098  HEAD  3 530 479
  sv1098  HEAD  4 530 479
  sv1108  HEAD  1 117 185
  sv1108  HEAD  4 117 185
  sv1110  HEAD  1 468 465
  sv1110  HEAD  4 468 465
  sv1116  HEAD  4 258 249
  sv1119  HEAD  1 463 288
  sv1119  HEAD  4 463 288
  sv1125  HEAD  4 641 478
  sv1158  HEAD  1 461 486
  sv1158  HEAD  2 461 486
  sv1158  HEAD  3 461 486
  sv1158  HEAD  4 461 486
  sv1159  HEAD  1 531 502
  sv1159  HEAD  4 531 502
  sv1161  HEAD  1 531 413
  sv1161  HEAD  4 531 413
  sv1162  HEAD  1 525 419
  sv1162  HEAD  4 525 419
  sv1164  HEAD  1 513 419
  sv1164  HEAD  4 513 419
  sv1173  HEAD  1 507 415
  sv1173  HEAD  4 507 415
  sv1179  HEAD  1 491 310
  sv1179  HEAD  4 491 310
  sv1188  HEAD  4 375 353
  sv1190  HEAD  1 559 371
  sv1190  HEAD  4 559 371
  sv1191  HEAD  1 432 481
  sv1191  HEAD  2 432 481
  sv1191  HEAD  3 432 481
  sv1191  HEAD  4 432 481
  sv1206  HEAD  4 536 419
  sv1208  HEAD  1 427 213
  sv1208  HEAD  4 427 213
  sv1209  HEAD  1 393 356
  sv1209  HEAD  4 393 356
  sv1219  HEAD  1 646 409
  sv1219  HEAD  3 646 409
  sv1219  HEAD  4 646 409
  sv1227  HEAD  1 517 422
  sv1227  HEAD  4 517 422
  sv1242  HEAD  1 516 416
  sv1242  HEAD  4 516 416
  sv1249  HEAD  1 518 422
  sv1249  HEAD  4 518 422
  sv1255  HEAD  1 428 214
  sv1255  HEAD  4 428 214
  sv1257  HEAD  1 514 414
  sv1257  HEAD  4 514 414
  sv1258  HEAD  1 545 428
  sv1258  HEAD  4 545 428
  sv1260  HEAD  1 70 127
  sv1260  HEAD  4 70 127
  sv1273  HEAD  1 527 417
  sv1273  HEAD  4 527 417
  sv1300  HEAD  1 203 130
  sv1300  HEAD  4 203 130
  sv1302  HEAD  1 527 420
  sv1302  HEAD  4 527 420
  sv1314  HEAD  1 99 96
  sv1314  HEAD  4 99 96
  sv1320  HEAD  4 357 259
  sv1321  HEAD  1 532 421
  sv1321  HEAD  4 532 421
  sv1322  HEAD  1 520 420
  sv1322  HEAD  4 520 420
  sv1323  HEAD  4 522 403
  sv1324  HEAD  1 523 423
  sv1324  HEAD  4 523 423
  sv1327  HEAD  1 364 262
  sv1327  HEAD  4 364 262
  sv1328  HEAD  1 521 416
  sv1328  HEAD  4 521 416
  sv1347  HEAD  1 474 350
  sv1347  HEAD  4 474 350
  sv1353  HEAD  4 544 419
  sv1358  HEAD  1 129 79
  sv1358  HEAD  4 129 79
  sv1361  HEAD  1 462 277
  sv1361  HEAD  4 462 277
  sv1372  HEAD  4 544 419
  sv1373  HEAD  1 344 544
  sv1373  HEAD  4 344 544
  sv1383  HEAD  1 521 417
  sv1383  HEAD  4 521 417
  sv1389  HEAD  1 463 471
  sv1389  HEAD  4 463 471
  sv1391  HEAD  4 518 510
  sv1392  HEAD  4 520 510
  sv1394  HEAD  4 502 413
  sv1395  HEAD  4 534 423
  sv1404  HEAD  1 540 423
  sv1404  HEAD  4 540 423
  sv1405  HEAD  1 521 422
  sv1405  HEAD  4 521 422
  sv1406  HEAD  1 522 421
  sv1406  HEAD  4 522 421
  sv1408  HEAD  4 354 295
  sv1422  HEAD  1 632 423
  sv1422  HEAD  2 632 423
  sv1422  HEAD  3 632 423
  sv1422  HEAD  4 632 423
  sv1429  HEAD  4 540 411
  sv1444  HEAD  1 524 413
  sv1444  HEAD  4 524 413
  sv1454  HEAD  1 471 467
  sv1454  HEAD  4 471 467
  sv1458  HEAD  4 537 419
  sv1469  HEAD  1 469 469
  sv1469  HEAD  4 469 469
  sv1478  HEAD  1 312 183
  sv1478  HEAD  2 312 183
  sv1478  HEAD  3 312 183
  sv1478  HEAD  4 312 183
  sv1481  HEAD  1 504 418
  sv1481  HEAD  4 504 418
  sv1493  HEAD  1 395 367
  sv1493  HEAD  4 395 367
  sv1494  HEAD  4 387 255
  sv1496  HEAD  4 395 445
  sv1500  HEAD  1 120 198
  sv1500  HEAD  4 120 198
  sv1507  HEAD  4 536 426
  sv1516  HEAD  1 425 350
  sv1516  HEAD  4 425 350
  sv1517  HEAD  1 438 346
  sv1517  HEAD  4 438 346
  sv1518  HEAD  1 448 353
  sv1518  HEAD  4 448 353
  sv1519  HEAD  1 443 356
  sv1519  HEAD  4 443 356
  sv1525  HEAD  4 380 464
  sv1527  HEAD  4 352 288
  sv1534  HEAD  4 535 417
  sv1542  HEAD  4 537 418
  sv1546  HEAD  1 67 134
  sv1546  HEAD  4 67 134
  sv1549  HEAD  4 516 518
  sv1550  HEAD  4 515 519
  sv1596  HEAD  4 581 494
  sv1597  HEAD  1 223 324
  sv1597  HEAD  4 223 324
  sv1607  HEAD  1 481 236
  sv1607  HEAD  4 481 236
  sv1619  HEAD  1 122 201
  sv1619  HEAD  4 122 201
  sv1620  HEAD  1 531 389
  sv1620  HEAD  4 531 389
  sv1657  HEAD  1 481 240
  sv1657  HEAD  4 481 240
  sv1658  HEAD  4 348 393
  sv1660  HEAD  1 498 413
  sv1660  HEAD  4 498 413
  sv1668  HEAD  1 493 308
  sv1668  HEAD  4 493 308
  sv1674  HEAD  1 116 185
  sv1674  HEAD  4 116 185
  sv1682  HEAD  1 521 398
  sv1682  HEAD  4 521 398
  sv1698  HEAD  1 410 245
  sv1698  HEAD  4 410 245
  sv1710  HEAD  1 412 253
  sv1710  HEAD  4 412 253
  sv1718  HEAD  1 303 180
  sv1718  HEAD  2 303 180
  sv1718  HEAD  3 303 180
  sv1718  HEAD  4 303 180
  sv1719  HEAD  1 487 359
  sv1719  HEAD  4 487 359
  sv1723  HEAD  1 209 134
  sv1723  HEAD  4 209 134
  sv1737  HEAD  1 522 417
  sv1737  HEAD  4 522 417
  sv1767  HEAD  1 386 486
  sv1767  HEAD  2 386 486
  sv1767  HEAD  3 386 486
  sv1767  HEAD  4 386 486
  sv1772  HEAD  4 537 417
  sv1776  HEAD  1 410 335
  sv1776  HEAD  4 410 335
  sv1778  HEAD  4 60 182
  sv1780  HEAD  1 388 486
  sv1780  HEAD  2 388 486
  sv1780  HEAD  3 388 486
  sv1780  HEAD  4 388 486
  sv1790  HEAD  4 192 224
  sv1791  HEAD  1 385 492
  sv1791  HEAD  2 385 492
  sv1791  HEAD  3 385 492
  sv1791  HEAD  4 385 492
  sv1796  HEAD  4 60 182
  sv1798  HEAD  1 169 213
  sv1798  HEAD  4 169 213
  sv1803  HEAD  1 169 213
  sv1803  HEAD  4 169 213
  sv1811  HEAD  4 469 272
  sv1814  HEAD  1 144 213
  sv1814  HEAD  4 144 213
  sv1817  HEAD  1 95 116
  sv1817  HEAD  4 95 116
  sv1822  HEAD  1 185 213
  sv1822  HEAD  4 185 213
  sv1823  HEAD  4 176 219
  sv1824  HEAD  4 181 214
  sv1825  HEAD  4 556 397
  sv1831  HEAD  1 409 354
  sv1831  HEAD  4 409 354
  sv1834  HEAD  4 180 183
  sv1838  HEAD  1 415 335
  sv1838  HEAD  4 415 335
  sv1849  HEAD  1 568 358
  sv1849  HEAD  4 568 358
  sv1871  HEAD  1 417 315
  sv1871  HEAD  4 417 315
  sv1874  HEAD  1 432 442
  sv1874  HEAD  4 432 442
  sv1875  HEAD  1 378 313
  sv1875  HEAD  4 378 313
  sv1889  HEAD  4 182 191
  sv1895  HEAD  4 376 464
  sv1901  HEAD  1 162 113
  sv1901  HEAD  4 162 113
  sv1916  HEAD  1 143 48
  sv1916  HEAD  4 143 48
  sv1926  HEAD  4 536 417
  sv1927  HEAD  1 516 419
  sv1927  HEAD  4 516 419
  sv1929  HEAD  1 538 421
  sv1929  HEAD  4 538 421
  sv1933  HEAD  1 81 151
  sv1933  HEAD  4 81 151
  sv1941  HEAD  1 190 152
  sv1941  HEAD  2 190 152
  sv1941  HEAD  3 190 152
  sv1941  HEAD  4 190 152
  sv1946  HEAD  1 143 217
  sv1946  HEAD  4 143 217
  sv1950  HEAD  4 380 462
  sv2007  HEAD  1 16 134
  sv2007  HEAD  4 16 134
  sv2013  HEAD  1 494 310
  sv2013  HEAD  4 494 310
  sv2017  HEAD  1 121 19
  sv2017  HEAD  4 121 19
  sv2053  HEAD  4 117 36
  sv2072  HEAD  1 465 464
  sv2072  HEAD  4 465 464
  sv2079  HEAD  1 446 433
  sv2079  HEAD  4 446 433
  sv2132  HEAD  1 593 459
  sv2132  HEAD  2 593 459
  sv2132  HEAD  4 593 459
  sv2156  HEAD  1 150 213
  sv2156  HEAD  4 150 213
  sv2162  HEAD  1 411 354
  sv2162  HEAD  4 411 354
  sv2163  HEAD  1 406 348
  sv2163  HEAD  4 406 348
  sv2172  HEAD  1 476 466
  sv2172  HEAD  4 476 466
  sv2193  HEAD  4 572 356
  sv2207  HEAD  1 561 480
  sv2207  HEAD  4 561 480
  sv2225  HEAD  1 42 112
  sv2225  HEAD  4 42 112
  sv2236  HEAD  1 420 325
  sv2236  HEAD  4 420 325
  sv2237  HEAD  1 420 324
  sv2237  HEAD  4 420 324
  sv2244  HEAD  1 401 355
  sv2244  HEAD  4 401 355
  sv2249  HEAD  1 378 487
  sv2249  HEAD  2 378 487
  sv2249  HEAD  4 378 487
  sv2266  HEAD  1 535 410
  sv2266  HEAD  4 535 410
  sv2267  HEAD  1 531 419
  sv2267  HEAD  4 531 419
  sv2268  HEAD  1 523 418
  sv2268  HEAD  4 523 418
  sv2269  HEAD  1 355 330
  sv2269  HEAD  4 355 330
  sv2272  HEAD  1 524 518
  sv2272  HEAD  4 524 518
  sv2295  HEAD  1 543 459
  sv2295  HEAD  4 543 459
  sv2316  HEAD  4 161 274
  sv2327  HEAD  1 250 321
  sv2327  HEAD  4 250 321
  sv2365  HEAD  4 98 132
  sv2396  HEAD  1 507 414
  sv2396  HEAD  4 507 414
  sv2399  HEAD  1 427 216
  sv2399  HEAD  4 427 216
  sv2401  HEAD  1 543 404
  sv2401  HEAD  4 543 404
  sv2407  HEAD  1 521 413
  sv2407  HEAD  4 521 413
  sv2408  HEAD  1 519 418
  sv2408  HEAD  4 519 418
  sv2409  HEAD  1 531 413
  sv2409  HEAD  4 531 413
  sv2429  HEAD  4 325 174
  sv2437  HEAD  4 308 269
  sv2454  HEAD  4 519 516
  sv2464  HEAD  4 345 394
  sv2466  HEAD  1 134 82
  sv2466  HEAD  4 134 82
  sv2486  HEAD  1 36 129
  sv2486  HEAD  4 36 129
  sv2499  HEAD  1 317 188
  sv2499  HEAD  2 317 188
  sv2499  HEAD  3 317 188
  sv2499  HEAD  4 317 188
  sv2512  HEAD  1 521 421
  sv2512  HEAD  4 521 421
  sv2521  HEAD  1 461 275
  sv2521  HEAD  4 461 275
  sv2525  HEAD  1 278 286
  sv2525  HEAD  4 278 286
  sv2528  HEAD  4 427 475
  sv2533  HEAD  1 67 133
  sv2533  HEAD  4 67 133
  sv2541  HEAD  1 283 242
  sv2541  HEAD  4 283 242
  sv2544  HEAD  1 559 369
  sv2544  HEAD  4 559 369
  sv2560  HEAD  1 458 233
  sv2560  HEAD  4 458 233
  sv2561  HEAD  1 458 233
  sv2561  HEAD  4 458 233
  sv2566  HEAD  1 172 213
  sv2566  HEAD  4 172 213
  sv2582  HEAD  1 151 214
  sv2582  HEAD  4 151 214
  sv2599  HEAD  1 266 345
  sv2599  HEAD  4 266 345
  sv2612  HEAD  1 470 301
  sv2612  HEAD  4 470 301
  sv2618  HEAD  1 259 257
  sv2618  HEAD  4 259 257
  sv2638  HEAD  4 297 291
  sv2639  HEAD  1 490 303
  sv2639  HEAD  4 490 303
  sv2644  HEAD  4 297 293
  sv2647  HEAD  4 298 293
  sv2649  HEAD  1 294 291
  sv2649  HEAD  4 294 291
  sv2668  HEAD  1 541 424
  sv2668  HEAD  4 541 424
  sv2680  HEAD  1 525 417
  sv2680  HEAD  4 525 417
  sv2686  HEAD  1 377 381
  sv2686  HEAD  4 377 381
  sv2693  HEAD  4 413 472
  sv2738  HEAD  1 403 256
  sv2738  HEAD  4 403 256
  sv2761  HEAD  1 523 388
  sv2761  HEAD  4 523 388
  sv2768  HEAD  1 423 393
  sv2768  HEAD  4 423 393
  sv2769  HEAD  1 440 369
  sv2769  HEAD  4 440 369
  sv2771  HEAD  1 430 361
  sv2771  HEAD  4 430 361
  sv2775  HEAD  4 539 417
  sv2776  HEAD  4 124 234
  sv2778  HEAD  4 127 235
  sv2785  HEAD  1 521 396
  sv2785  HEAD  4 521 396
  sv2797  HEAD  4 255 264
  sv2798  HEAD  4 259 263
  sv2801  HEAD  1 65 129
  sv2801  HEAD  4 65 129
  sv2855  HEAD  1 470 338
  sv2855  HEAD  4 470 338
  sv2856  HEAD  1 484 337
  sv2856  HEAD  4 484 337
  sv2862  HEAD  1 155 206
  sv2862  HEAD  4 155 206
  sv2875  HEAD  1 520 401
  sv2875  HEAD  4 520 401
  sv2887  HEAD  4 546 411
  sv2888  HEAD  1 549 395
  sv2888  HEAD  4 549 395
  sv2904  HEAD  4 134 234
  sv2905  HEAD  1 131 231
  sv2905  HEAD  4 131 231
  sv2942  HEAD  4 285 212
  sv2943  HEAD  1 133 218
  sv2943  HEAD  4 133 218
  sv2963  HEAD  1 135 218
  sv2963  HEAD  4 135 218
  sv2971  HEAD  1 458 334
  sv2971  HEAD  4 458 334
  sv2972  HEAD  1 409 393
  sv2972  HEAD  4 409 393
  sv2974  HEAD  4 482 349
  sv3010  HEAD  1 380 485
  sv3010  HEAD  2 380 485
  sv3010  HEAD  4 380 485
  sv3022  HEAD  4 521 384
  sv3054  HEAD  1 381 301
  sv3054  HEAD  4 381 301
  sv3071  HEAD  1 477 333
  sv3071  HEAD  4 477 333
  sv3074  HEAD  1 464 328
  sv3074  HEAD  4 464 328
  sv3075  HEAD  1 390 321
  sv3075  HEAD  4 390 321
  sv3117  HEAD  4 358 197
  sv3127  HEAD  1 485 264
  sv3127  HEAD  4 485 264
  sv3157  HEAD  1 273 211
  sv3157  HEAD  4 273 211
  sv3158  HEAD  1 135 136
  sv3158  HEAD  2 135 136
  sv3158  HEAD  3 135 136
  sv3158  HEAD  4 135 136
  sv3168  HEAD  1 48 129
  sv3168  HEAD  4 48 129
  sv3183  HEAD  1 76 192
  sv3183  HEAD  4 76 192
  sv3200  HEAD  1 530 391
  sv3200  HEAD  4 530 391
  sv3210  HEAD  4 291 201
  sv3214  HEAD  4 408 473
  sv3239  HEAD  1 204 131
  sv3239  HEAD  4 204 131
  sv3265  HEAD  1 141 137
  sv3265  HEAD  2 141 137
  sv3265  HEAD  3 141 137
  sv3265  HEAD  4 141 137
  sv3303  HEAD  1 35 144
  sv3303  HEAD  4 35 144
  sv3304  HEAD  1 157 159
  sv3304  HEAD  2 157 159
  sv3304  HEAD  4 157 159
  sv3324  HEAD  4 215 166
  sv3347  HEAD  1 486 311
  sv3347  HEAD  4 486 311
  sv3358  HEAD  1 523 417
  sv3358  HEAD  4 523 417
  sv3391  HEAD  1 342 208
  sv3391  HEAD  2 342 208
  sv3391  HEAD  3 342 208
  sv3391  HEAD  4 342 208
  sv3398  HEAD  1 216 378
  sv3398  HEAD  4 216 378
  sv3417  HEAD  4 474 282
  sv3423  HEAD  4 543 417
  sv3434  HEAD  4 395 234
  sv3438  HEAD  1 422 458
  sv3438  HEAD  4 422 458
  sv3515  HEAD  1 97 120
  sv3515  HEAD  4 97 120
  sv3518  HEAD  3 320 217
  sv3518  HEAD  4 320 217
  sv3541  HEAD  1 59 137
  sv3541  HEAD  4 59 137
  sv3547  HEAD  1 261 236
  sv3547  HEAD  4 261 236
  sv3571  HEAD  4 82 134
  sv3577  HEAD  1 503 313
  sv3577  HEAD  4 503 313
  sv3596  HEAD  1 142 138
  sv3596  HEAD  2 142 138
  sv3596  HEAD  3 142 138
  sv3596  HEAD  4 142 138
  sv3625  HEAD  1 328 365
  sv3625  HEAD  4 328 365
  sv3636  HEAD  1 418 214
  sv3636  HEAD  4 418 214
  sv3639  HEAD  1 142 44
  sv3639  HEAD  4 142 44
  sv3654  HEAD  1 232 420
  sv3654  HEAD  4 232 420
  sv3667  HEAD  1 539 420
  sv3667  HEAD  4 539 420
  sv3675  HEAD  1 538 403
  sv3675  HEAD  4 538 403
  sv3681  HEAD  1 341 246
  sv3681  HEAD  4 341 246
  sv3703  HEAD  1 531 423
  sv3703  HEAD  4 531 423
  sv3710  HEAD  1 265 187
  sv3710  HEAD  2 265 187
  sv3710  HEAD  3 265 187
  sv3710  HEAD  4 265 187
  sv3724  HEAD  1 441 347
  sv3724  HEAD  4 441 347
  sv3748  HEAD  1 436 344
  sv3748  HEAD  4 436 344
  sv3756  HEAD  1 357 330
  sv3756  HEAD  4 357 330
  sv3817  HEAD  1 420 241
  sv3817  HEAD  4 420 241
  sv3854  HEAD  1 117 138
  sv3854  HEAD  4 117 138
  sv3889  HEAD  1 455 349
  sv3889  HEAD  4 455 349
  sv3903  HEAD  1 104 119
  sv3903  HEAD  4 104 119
  sv3925  HEAD  1 208 134
  sv3925  HEAD  4 208 134
  sv3943  HEAD  1 482 457
  sv3943  HEAD  4 482 457
  sv3946  HEAD  4 382 354
  sv3967  HEAD  1 430 249
  sv3967  HEAD  4 430 249
  sv3980  HEAD  1 49 137
  sv3980  HEAD  4 49 137
  sv3982  HEAD  1 523 339
  sv3982  HEAD  4 523 339
  sv3983  HEAD  1 510 476
  sv3983  HEAD  3 510 476
  sv3983  HEAD  4 510 476
  sv3991  HEAD  1 515 486
  sv3991  HEAD  2 515 486
  sv3991  HEAD  3 515 486
  sv3991  HEAD  4 515 486
  sv3996  HEAD  4 293 162
  sv3997  HEAD  1 378 259
  sv3997  HEAD  4 378 259
  sv4015  HEAD  4 295 162
  sv4022  HEAD  1 417 303
  sv4022  HEAD  4 417 303
  sv4059  HEAD  4 296 166
  sv4069  HEAD  1 476 276
  sv4069  HEAD  4 476 276
  sv4122  HEAD  1 542 459
  sv4122  HEAD  4 542 459
  sv4131  HEAD  4 518 519
  sv4164  HEAD  1 512 348
  sv4164  HEAD  4 512 348
  sv4177  HEAD  1 237 170
  sv4177  HEAD  4 237 170
  sv4178  HEAD  1 242 170
  sv4178  HEAD  4 242 170
  sv4179  HEAD  1 225 161
  sv4179  HEAD  4 225 161
  sv4193  HEAD  1 424 265
  sv4193  HEAD  4 424 265
  sv4215  HEAD  1 447 354
  sv4215  HEAD  4 447 354
  sv4220  HEAD  1 225 541
  sv4220  HEAD  2 225 541
  sv4220  HEAD  4 225 541
  sv4221  HEAD  1 410 350
  sv4221  HEAD  4 410 350
  sv4222  HEAD  1 142 139
  sv4222  HEAD  2 142 139
  sv4222  HEAD  3 142 139
  sv4222  HEAD  4 142 139
  sv4240  HEAD  1 525 416
  sv4240  HEAD  4 525 416
  sv4247  HEAD  1 78 108
  sv4247  HEAD  4 78 108
  sv4254  HEAD  1 513 413
  sv4254  HEAD  4 513 413
  sv4257  HEAD  1 76 138
  sv4257  HEAD  4 76 138
  sv4291  HEAD  4 541 407
  sv4318  HEAD  1 621 466
  sv4318  HEAD  4 621 466
  sv4343  HEAD  4 505 281
  sv4351  HEAD  1 421 243
  sv4351  HEAD  4 421 243
  sv4353  HEAD  1 483 273
  sv4353  HEAD  4 483 273
  sv4368  HEAD  1 160 169
  sv4368  HEAD  4 160 169
  sv4370  HEAD  4 144 151
  sv4395  HEAD  1 507 296
  sv4395  HEAD  4 507 296
  sv4409  HEAD  1 476 275
  sv4409  HEAD  4 476 275
  sv4413  HEAD  4 511 440
  sv4415  HEAD  1 324 399
  sv4415  HEAD  4 324 399
  sv4417  HEAD  1 496 353
  sv4417  HEAD  4 496 353
  sv4429  HEAD  1 248 413
  sv4429  HEAD  4 248 413
  sv4435  HEAD  1 628 424
  sv4435  HEAD  2 628 424
  sv4435  HEAD  3 628 424
  sv4435  HEAD  4 628 424
  sv4460  HEAD  1 419 286
  sv4460  HEAD  4 419 286
  sv4470  HEAD  1 490 289
  sv4470  HEAD  4 490 289
  sv4479  HEAD  1 81 126
  sv4479  HEAD  4 81 126
  sv4489  HEAD  4 390 253
  sv4495  HEAD  4 113 180
  sv4508  HEAD  1 136 152
  sv4508  HEAD  4 136 152
  sv4509  HEAD  4 374 454
  sv4550  HEAD  1 167 200
  sv4550  HEAD  4 167 200
  sv4615  HEAD  1 494 275
  sv4615  HEAD  4 494 275
  sv4651  HEAD  1 65 140
  sv4651  HEAD  4 65 140
  sv4658  HEAD  1 63 114
  sv4658  HEAD  4 63 114
  sv700  HEAD  4 481 260
  sv722  HEAD  1 354 300
  sv722  HEAD  4 354 300
  sv731  HEAD  4 524 387
  sv740  HEAD  1 520 516
  sv740  HEAD  4 520 516
  sv748  HEAD  1 514 412
  sv748  HEAD  4 514 412
  sv759  HEAD  1 62 137
  sv759  HEAD  4 62 137
  sv760  HEAD  1 373 211
  sv760  HEAD  4 373 211
  sv772  HEAD  1 457 475
  sv772  HEAD  2 457 475
  sv772  HEAD  4 457 475
  sv783  HEAD  1 350 310
  sv783  HEAD  4 350 310
  sv793  HEAD  1 488 293
  sv793  HEAD  4 488 293
  sv809  HEAD  4 188 333
  sv810  HEAD  1 205 205
  sv810  HEAD  4 205 205
  sv835  HEAD  4 536 423
  sv851  HEAD  4 315 286
  sv852  HEAD  1 521 391
  sv852  HEAD  4 521 391
  sv867  HEAD  1 65 140
  sv867  HEAD  4 65 140
  sv869  HEAD  1 478 531
  sv869  HEAD  4 478 531
  sv898  HEAD  1 455 357
  sv898  HEAD  4 455 357
  sv905  HEAD  4 537 417
  sv907  HEAD  1 499 413
  sv907  HEAD  4 499 413
  sv913  HEAD  1 518 478
  sv913  HEAD  2 518 478
  sv913  HEAD  3 518 478
  sv913  HEAD  4 518 478
  sv920  HEAD  1 105 165
  sv920  HEAD  4 105 165
  sv923  HEAD  1 101 97
  sv923  HEAD  2 101 97
  sv923  HEAD  4 101 97
  sv931  HEAD  1 132 69
  sv931  HEAD  4 132 69
  sv937  HEAD  1 53 113
  sv937  HEAD  4 53 113
  sv943  HEAD  1 507 418
  sv943  HEAD  4 507 418
  sv946  HEAD  4 528 386
  sv949  HEAD  4 632 464
  sv953  HEAD  1 626 424
  sv953  HEAD  2 626 424
  sv953  HEAD  3 626 424
  sv953  HEAD  4 626 424
  sv967  HEAD  1 491 312
  sv967  HEAD  4 491 312
  sv969  HEAD  4 526 387
  sv978  HEAD  4 536 387
  sv991  HEAD  4 411 465
  sv994  HEAD  1 525 390
  sv994  HEAD  4 525 390
  u1730  HEAD  4 307 495
  u1936  HEAD  1 239 469
  u1936  HEAD  4 239 469
  u2053  HEAD  1 212 307
  u2053  HEAD  4 212 307
  u2084  HEAD  1 297 508
  u2084  HEAD  2 297 508
  u2084  HEAD  3 297 508
  u2084  HEAD  4 297 508
  u2243  HEAD  4 100 288
  u2279  HEAD  1 246 527
  u2279  HEAD  2 246 527
  u2279  HEAD  3 246 527
  u2279  HEAD  4 246 527
  u2441  HEAD  4 76 299
  u2686  HEAD  1 253 507
  u2686  HEAD  4 253 507
  u2744  HEAD  4 217 501
  u2969  HEAD  4 200 566
  u2982  HEAD  1 87 382
  u2982  HEAD  4 87 382
  u3288  HEAD  1 252 507
  u3288  HEAD  4 252 507
  u3433  HEAD  4 266 338
  u3717  HEAD  1 309 500
  u3717  HEAD  2 309 500
  u3717  HEAD  4 309 500
  u3741  HEAD  1 469 361
  u3741  HEAD  4 469 361
  u4315  HEAD  1 250 320
  u4315  HEAD  4 250 320
  u4328  HEAD  1 195 252
  u4328  HEAD  4 195 252
  u4724  HEAD  1 181 323
  u4724  HEAD  4 181 323
  u4825  HEAD  1 228 308
  u4825  HEAD  4 228 308
  u4851  HEAD  1 262 402
  u4851  HEAD  4 262 402
  u5000  HEAD  1 119 194
  u5000  HEAD  4 119 194
  u5083  HEAD  1 261 321
  u5083  HEAD  4 261 321
  u5100  HEAD  1 177 304
  u5100  HEAD  4 177 304
  u5180  HEAD  1 177 304
  u5180  HEAD  4 177 304
  u5326  HEAD  1 178 517
  u5326  HEAD  4 178 517
  u5393  HEAD  1 122 197
  u5393  HEAD  4 122 197
  u5438  HEAD  1 198 367
  u5438  HEAD  4 198 367
  u5567  HEAD  1 132 353
  u5567  HEAD  4 132 353
  u5597  HEAD  1 140 332
  u5597  HEAD  4 140 332
  u5599  HEAD  1 146 331
  u5599  HEAD  4 146 331
  u5600  HEAD  1 144 328
  u5600  HEAD  4 144 328
  u5601  HEAD  1 141 329
  u5601  HEAD  4 141 329
  u5668  HEAD  1 219 376
  u5668  HEAD  4 219 376
  u5669  HEAD  1 198 247
  u5669  HEAD  4 198 247
  u5770  HEAD  4 195 263
  u5850  HEAD  1 347 548
  u5850  HEAD  4 347 548
  u5868  HEAD  1 168 453
  u5868  HEAD  4 168 453
  u5908  HEAD  1 114 249
  u5908  HEAD  4 114 249
  u5909  HEAD  1 113 252
  u5909  HEAD  4 113 252
  u5978  HEAD  1 181 300
  u5978  HEAD  4 181 300
  u7084  HEAD  1 202 553
  u7084  HEAD  2 202 553
  u7084  HEAD  4 202 553
  u7172  HEAD  1 255 421
  u7172  HEAD  4 255 421
  u7190  HEAD  1 179 312
  u7190  HEAD  4 179 312
  u7274  HEAD  1 245 414
  u7274  HEAD  4 245 414
  u7411  HEAD  1 223 279
  u7411  HEAD  4 223 279
  u7452  HEAD  4 101 308
  u7509  HEAD  1 249 506
  u7509  HEAD  4 249 506
  u7567  HEAD  4 258 509
  u7726  HEAD  4 281 605
  u7798  HEAD  1 248 413
  u7798  HEAD  4 248 413
  u7930  HEAD  1 269 348
  u7930  HEAD  4 269 348
  u7940  HEAD  1 120 340
  u7940  HEAD  4 120 340
  u7975  HEAD  1 125 285
  u7975  HEAD  4 125 285
  u8108  HEAD  1 297 505
  u8108  HEAD  2 297 505
  u8108  HEAD  3 297 505
  u8108  HEAD  4 297 505
  u8160  HEAD  4 176 251
  u8161  HEAD  1 166 250
  u8161  HEAD  4 166 250
  u8254  HEAD  2 288 511
  u8254  HEAD  3 288 511
  u8254  HEAD  4 288 511
  u8303  HEAD  4 407 520
  u8309  HEAD  1 139 338
  u8309  HEAD  4 139 338
  u8311  HEAD  1 219 377
  u8311  HEAD  4 219 377
  u8339  HEAD  1 211 488
  u8339  HEAD  4 211 488
  u8432  HEAD  1 139 343
  u8432  HEAD  4 139 343
  u8468  HEAD  1 228 537
  u8468  HEAD  2 228 537
  u8468  HEAD  3 228 537
  u8468  HEAD  4 228 537
  u8483  HEAD  1 378 298
  u8483  HEAD  4 378 298
  u8491  HEAD  1 274 325
  u8491  HEAD  4 274 325
  u8543  HEAD  1 301 332
  u8543  HEAD  4 301 332
  u8544  HEAD  4 390 272
  u8838  HEAD  1 216 547
  u8838  HEAD  2 216 547
  u8838  HEAD  3 216 547
  u8838  HEAD  4 216 547
  u8851  HEAD  1 95 277
  u8851  HEAD  4 95 277
  u8990  HEAD  1 287 292
  u8990  HEAD  4 287 292
  u9042  HEAD  1 300 557
  u9042  HEAD  4 300 557
END continuous  FILEOUT  neversink.head.obs

