# neversink model version 0.post7.dev0+g3db0af8
# File generated by Flopy version 3.3.3 on 03/08/2021 at 18:52:10.
# via modflow-setup version 0.post229+gbea8073 at 2021-03-08 18:52:10
BEGIN options
  READASARRAYS
  PRINT_INPUT
  SAVE_FLOWS
END options

BEGIN period  1
  irch
    OPEN/CLOSE  '././irch.dat'  FACTOR  1
  recharge
    OPEN/CLOSE  '././rch_000.dat'  FACTOR  1.0
END period  1

