# MPSIM package for MODPATH 7, generated by Flopy.
neversink_mp_forward_weak_NE.mpnam
neversink_mp_forward_weak_NE.mplst
4 1 2 1 0 0
neversink_mp_forward_weak_NE.mpend
neversink_mp_forward_weak_NE.mppth
neversink_mp_forward_weak_NE.timeseries
0
1
0
2
1
100 0.01
1
1
1
PG1
1
0.0
INTERNAL
3
1 44951
2 44951 1
 1 1 1
 93226 93227 93228 93229 93230 93231 93232 93233 93234 93235 93236
 93237 93238 93239 93240 93241 93242 93243 93244 93245 93246
 93247 93248 93249 93250 93251 93252 93253 93254 93255 93256
 93257 93258 93259 93260 93261 93262 93285 93286 93287 93288
 93289 93290 93291 93292 93293 93294 93295 93296 93297 93298
 1356059 1356060 1356061 1356062 1356063 1356064 1356065 1356066 1356067 1356068
 1356069 1356070 1356071 1356072 1356073 1356074 1356075 1356076 1356077 1356078
 1356079 1356080 1356081 1356082 1356083 1356084 1356085 1356086 1356087 1356088
 1356089 1356090 1356091 1356092 1356093 1356094 1356095 1356096 1356097 1356098
 1356099 1356100 1356101 1356102 1356103 1356104 1356105 1356106 1356107 1356108
 1356109 1356110 1356111 1356112 1356113 1356114 1356115 1356116 1356117 1356118
 1356119 1356120 93845 93846 93847 93848 93849 93850 93851 93852
 93853 93854 93855 93856 93857 93858 93859 93860 93861 93862
 93863 93864 93865 93866 93867 93868 93869 93870 93871 93872
 93873 93874 93875 93876 93877 93878 93879 93880 93881 93882
 93904 93905 93906 93907 93908 93909 93910 93911 93912 93913
 93914 93915 93916 93917 1356678 1356679 1356680 1356681 1356682 1356683
 1356684 1356685 1356686 1356687 1356688 1356689 1356690 1356691 1356692 1356693
 1356694 1356695 1356696 1356697 1356698 1356699 1356700 1356701 1356702 1356703
 1356704 1356705 1356706 1356707 1356708 1356709 1356710 1356711 1356712 1356713
 1356714 1356715 1356716 1356717 1356718 1356719 1356720 1356721 1356722 1356723
 1356724 1356725 1356726 1356727 1356728 1356729 1356730 1356731 1356732 1356733
 1356734 1356735 1356736 1356737 1356738 1356739 1356740 94464 94465 94466
 94467 94468 94469 94470 94471 94472 94473 94474 94475 94476
 94477 94478 94479 94480 94481 94482 94483 94484 94485 94486
 94487 94488 94489 94490 94491 94492 94493 94494 94495 94496
 94497 94498 94499 94500 94501 94506 94507 94523 94524 94525
 94526 94527 94528 94529 94530 94531 94532 94533 94534 94535
 94536 1357297 1357298 1357299 1357300 1357301 1357302 1357303 1357304 1357305
 1357306 1357307 1357308 1357309 1357310 1357311 1357312 1357313 1357314 1357315
 1357316 1357317 1357318 1357319 1357320 1357321 1357322 1357323 1357324 1357325
 1357326 1357327 1357328 1357329 1357330 1357331 1357332 1357333 1357334 1357335
 1357336 1357337 1357338 1357339 1357340 1357341 1357342 1357343 1357344 1357345
 1357346 1357347 1357348 1357349 1357350 1357351 1357352 1357353 1357354 1357355
 1357356 1357357 1357358 1357359 1357360 95083 95084 95085 95086 95087
 95088 95089 95090 95091 95092 95093 95094 95095 95096 95097
 95098 95099 95100 95101 95102 95103 95104 95105 95106 95107
 95108 95109 95110 95111 95112 95113 95114 95115 95116 95117
 95118 95119 95120 95121 95122 95123 95124 95125 95126 95127
 95128 95141 95142 95143 95144 95145 95146 95147 95148 95149
 95150 95151 95152 95153 95154 1357915 1357916 1357917 1357918 1357919
 1357920 1357921 1357922 1357923 1357924 1357925 1357926 1357927 1357928 1357929
 1357930 1357931 1357932 1357933 1357934 1357935 1357936 1357937 1357938 1357939
 1357940 1357941 1357942 1357943 1357944 1357945 1357946 1357947 1357948 1357949
 1357950 1357951 1357952 1357953 1357954 1357955 1357956 1357957 1357958 1357959
 1357960 1357961 1357962 1357963 1357964 1357965 1357966 1357967 1357968 1357969
 1357970 1357971 1357972 1357973 1357974 1357975 1357976 1357977 1357978 1357979
 95702 95703 95704 95705 95706 95707 95708 95709 95710 95711
 95712 95713 95714 95715 95716 95717 95718 95719 95720 95721
 95722 95723 95724 95725 95726 95727 95728 95729 95730 95731
 95732 95733 95734 95735 95736 95737 95738 95739 95740 95741
 95742 95743 95744 95745 95746 95747 95748 95759 95760 95761
 95762 95763 95764 95765 95766 95767 95768 95769 95770 95771
 95772 95773 1358534 1358535 1358536 1358537 1358538 1358539 1358540 1358541
 1358542 1358543 1358544 1358545 1358546 1358547 1358548 1358549 1358550 1358551
 1358552 1358553 1358554 1358555 1358556 1358557 1358558 1358559 1358560 1358561
 1358562 1358563 1358564 1358565 1358566 1358567 1358568 1358569 1358570 1358571
 1358572 1358573 1358574 1358575 1358576 1358577 1358578 1358579 1358580 1358581
 1358582 1358583 1358584 1358585 1358586 1358587 1358588 1358589 1358590 1358591
 1358592 1358593 1358594 1358595 1358596 1358597 1358598 96321 96322 96323
 96324 96325 96326 96327 96328 96329 96330 96331 96332 96333
 96334 96335 96336 96337 96338 96339 96340 96341 96342 96343
 96344 96345 96346 96347 96348 96349 96350 96351 96352 96353
 96354 96355 96356 96357 96358 96359 96360 96361 96362 96363
 96364 96365 96366 96367 96368 96377 96378 96379 96380 96381
 96382 96383 96384 96385 96386 96387 96388 96389 96390 96391
 96392 1359153 1359154 1359155 1359156 1359157 1359158 1359159 1359160 1359161
 1359162 1359163 1359164 1359165 1359166 1359167 1359168 1359169 1359170 1359171
 1359172 1359173 1359174 1359175 1359176 1359177 1359178 1359179 1359180 1359181
 1359182 1359183 1359184 1359185 1359186 1359187 1359188 1359189 1359190 1359191
 1359192 1359193 1359194 1359195 1359196 1359197 1359198 1359199 1359200 1359201
 1359202 1359203 1359204 1359205 1359206 1359207 1359208 1359209 1359210 1359211
 1359212 1359213 1359214 1359215 1359216 1359217 1359218 96940 96941 96942
 96943 96944 96945 96946 96947 96948 96949 96950 96951 96952
 96953 96954 96955 96956 96957 96958 96959 96960 96961 96962
 96963 96964 96965 96966 96967 96968 96969 96970 96971 96972
 96973 96974 96975 96976 96977 96978 96979 96980 96981 96982
 96983 96984 96985 96986 96987 96988 96989 96990 96994 96995
 96996 96997 96998 96999 97000 97001 97002 97003 97004 97005
 97006 97007 97008 97009 97010 97011 97012 1359773 1359774 1359775
 1359776 1359777 1359778 1359779 1359780 1359781 1359782 1359783 1359784 1359785
 1359786 1359787 1359788 1359789 1359790 1359791 1359792 1359793 1359794 1359795
 1359796 1359797 1359798 1359799 1359800 1359801 1359802 1359803 1359804 1359805
 1359806 1359807 1359808 1359809 1359810 1359811 1359812 1359813 1359814 1359815
 1359816 1359817 1359818 1359819 1359820 1359821 1359822 1359823 1359824 1359825
 1359826 1359827 1359828 1359829 1359830 1359831 1359832 1359833 1359834 1359835
 1359836 1359837 1359838 97559 97560 97561 97562 97563 97564 97565
 97566 97567 97568 97569 97570 97571 97572 97573 97574 97575
 97576 97577 97578 97579 97580 97581 97582 97583 97584 97585
 97586 97587 97588 97589 97590 97591 97592 97593 97594 97595
 97596 97597 97598 97599 97600 97601 97602 97603 97604 97605
 97606 97607 97608 97609 97610 97611 97612 97613 97614 97615
 97616 97617 97618 97619 97620 97621 97622 97623 97624 97625
 97626 97627 97628 97629 97630 97631 97632 1360393 1360394 1360395
 1360396 1360397 1360398 1360399 1360400 1360401 1360402 1360403 1360404 1360405
 1360406 1360407 1360408 1360409 1360410 1360411 1360412 1360413 1360414 1360415
 1360416 1360417 1360418 1360419 1360420 1360421 1360422 1360423 1360424 1360425
 1360426 1360427 1360428 1360429 1360430 1360431 1360432 1360433 1360434 1360435
 1360436 1360437 1360438 1360439 1360440 1360441 1360442 1360443 1360444 1360445
 1360446 1360447 1360448 1360449 1360450 1360451 1360452 1360453 1360454 1360455
 1360456 1360457 1360458 98178 98179 98180 98181 98182 98183 98184
 98185 98186 98187 98188 98189 98190 98191 98192 98193 98194
 98195 98196 98197 98198 98199 98200 98201 98202 98203 98204
 98205 98206 98207 98208 98209 98210 98211 98212 98213 98214
 98215 98216 98217 98218 98219 98220 98221 98222 98223 98224
 98225 98226 98227 98228 98229 98230 98231 98232 98233 98234
 98235 98236 98237 98238 98239 98240 98241 98242 98243 98244
 98245 98246 98247 98248 98249 98250 98251 1361012 1361013 1361014
 1361015 1361016 1361017 1361018 1361019 1361020 1361021 1361022 1361023 1361024
 1361025 1361026 1361027 1361028 1361029 1361030 1361031 1361032 1361033 1361034
 1361035 1361036 1361037 1361038 1361039 1361040 1361041 1361042 1361043 1361044
 1361045 1361046 1361047 1361048 1361049 1361050 1361051 1361052 1361053 1361054
 1361055 1361056 1361057 1361058 1361059 1361060 1361061 1361062 1361063 1361064
 1361065 1361066 1361067 1361068 1361069 1361070 1361071 1361072 1361073 1361074
 1361075 1361076 1361077 98797 98798 98799 98800 98801 98802 98803
 98804 98805 98806 98807 98808 98809 98810 98811 98812 98813
 98814 98815 98816 98817 98818 98819 98820 98821 98822 98823
 98824 98825 98826 98827 98828 98829 98830 98831 98832 98833
 98834 98835 98836 98837 98838 98839 98840 98841 98842 98843
 98844 98845 98846 98847 98848 98849 98850 98851 98852 98853
 98854 98855 98856 98857 98858 98859 98860 98861 98862 98863
 98864 98865 98866 98867 98868 98869 1361630 1361631 1361632 1361633
 1361634 1361635 1361636 1361637 1361638 1361639 1361640 1361641 1361642 1361643
 1361644 1361645 1361646 1361647 1361648 1361649 1361650 1361651 1361652 1361653
 1361654 1361655 1361656 1361657 1361658 1361659 1361660 1361661 1361662 1361663
 1361664 1361665 1361666 1361667 1361668 1361669 1361670 1361671 1361672 1361673
 1361674 1361675 1361676 1361677 1361678 1361679 1361680 1361681 1361682 1361683
 1361684 1361685 1361686 1361687 1361688 1361689 1361690 1361691 1361692 1361693
 1361694 1361695 1361696 99416 99417 99418 99419 99420 99421 99422
 99423 99424 99425 99426 99427 99428 99429 99430 99431 99432
 99433 99434 99435 99436 99437 99438 99439 99440 99441 99442
 99443 99444 99445 99446 99447 99448 99449 99450 99451 99452
 99453 99454 99455 99456 99457 99458 99459 99460 99461 99462
 99463 99464 99465 99466 99467 99468 99469 99470 99471 99472
 99473 99474 99475 99476 99477 99478 99479 99480 99481 99482
 99483 99484 99485 99486 99487 99488 1362249 1362250 1362251 1362252
 1362253 1362254 1362255 1362256 1362257 1362258 1362259 1362260 1362261 1362262
 1362263 1362264 1362265 1362266 1362267 1362268 1362269 1362270 1362271 1362272
 1362273 1362274 1362275 1362276 1362277 1362278 1362279 1362280 1362281 1362282
 1362283 1362284 1362285 1362286 1362287 1362288 1362289 1362290 1362291 1362292
 1362293 1362294 1362295 1362296 1362297 1362298 1362299 1362300 1362301 1362302
 1362303 1362304 1362305 1362306 1362307 1362308 1362309 1362310 1362311 1362312
 1362313 1362314 1362315 100035 100036 100037 100038 100039 100040 100041
 100042 100043 100044 100045 100046 100047 100048 100049 100050 100051
 100052 100053 100054 100055 100056 100057 100058 100059 100060 100061
 100062 100063 100064 100065 100066 100067 100068 100069 100070 100071
 100072 100073 100074 100075 100076 100077 100078 100079 100080 100081
 100082 100083 100084 100085 100086 100087 100088 100089 100090 100091
 100092 100093 100094 100095 100096 100097 100098 100099 100100 100101
 100102 100103 100104 100105 100106 100107 1362868 1362869 1362870 1362871
 1362872 1362873 1362874 1362875 1362876 1362877 1362878 1362879 1362880 1362881
 1362882 1362883 1362884 1362885 1362886 1362887 1362888 1362889 1362890 1362891
 1362892 1362893 1362894 1362895 1362896 1362897 1362898 1362899 1362900 1362901
 1362902 1362903 1362904 1362905 1362906 1362907 1362908 1362909 1362910 1362911
 1362912 1362913 1362914 1362915 1362916 1362917 1362918 1362919 1362920 1362921
 1362922 1362923 1362924 1362925 1362926 1362927 1362928 1362929 1362930 1362931
 1362932 1362933 1362934 100654 100655 100656 100657 100658 100659 100660
 100661 100662 100663 100664 100665 100666 100667 100668 100669 100670
 100671 100672 100673 100674 100675 100676 100677 100678 100679 100680
 100681 100682 100683 100684 100685 100686 100687 100688 100689 100690
 100691 100692 100693 100694 100695 100696 100697 100698 100699 100700
 100701 100702 100703 100704 100705 100706 100707 100708 100709 100710
 100711 100712 100713 100714 100715 100716 100717 100718 100719 100720
 100721 100722 100723 100724 100725 100726 1363487 1363488 1363489 1363490
 1363491 1363492 1363493 1363494 1363495 1363496 1363497 1363498 1363499 1363500
 1363501 1363502 1363503 1363504 1363505 1363506 1363507 1363508 1363509 1363510
 1363511 1363512 1363513 1363514 1363515 1363516 1363517 1363518 1363519 1363520
 1363521 1363522 1363523 1363524 1363525 1363526 1363527 1363528 1363529 1363530
 1363531 1363532 1363533 1363534 1363535 1363536 1363537 1363538 1363539 1363540
 1363541 1363542 1363543 1363544 1363545 1363546 1363547 1363548 1363549 1363550
 1363551 1363552 1363553 1363554 101273 101274 101275 101276 101277 101278
 101279 101280 101281 101282 101283 101284 101285 101286 101287 101288
 101289 101290 101291 101292 101293 101294 101295 101296 101297 101298
 101299 101300 101301 101302 101303 101304 101305 101306 101307 101308
 101309 101310 101311 101312 101313 101314 101315 101316 101317 101318
 101319 101320 101321 101322 101323 101324 101325 101326 101327 101328
 101329 101330 101331 101332 101333 101334 101335 101336 101337 101338
 101339 101340 101341 101342 101343 101344 101345 1364106 1364107 1364108
 1364109 1364110 1364111 1364112 1364113 1364114 1364115 1364116 1364117 1364118
 1364119 1364120 1364121 1364122 1364123 1364124 1364125 1364126 1364127 1364128
 1364129 1364130 1364131 1364132 1364133 1364134 1364135 1364136 1364137 1364138
 1364139 1364140 1364141 1364142 1364143 1364144 1364145 1364146 1364147 1364148
 1364149 1364150 1364151 1364152 1364153 1364154 1364155 1364156 1364157 1364158
 1364159 1364160 1364161 1364162 1364163 1364164 1364165 1364166 1364167 1364168
 1364169 1364170 1364171 1364172 1364173 101892 101893 101894 101895 101896
 101897 101898 101899 101900 101901 101902 101903 101904 101905 101906
 101907 101908 101909 101910 101911 101912 101913 101914 101915 101916
 101917 101918 101919 101920 101921 101922 101923 101924 101925 101926
 101927 101928 101929 101930 101931 101932 101933 101934 101935 101936
 101937 101938 101939 101940 101941 101942 101943 101944 101945 101946
 101947 101948 101949 101950 101951 101952 101953 101954 101955 101956
 101957 101958 101959 101960 101961 101962 101963 101964 1364725 1364726
 1364727 1364728 1364729 1364730 1364731 1364732 1364733 1364734 1364735 1364736
 1364737 1364738 1364739 1364740 1364741 1364742 1364743 1364744 1364745 1364746
 1364747 1364748 1364749 1364750 1364751 1364752 1364753 1364754 1364755 1364756
 1364757 1364758 1364759 1364760 1364761 1364762 1364763 1364764 1364765 1364766
 1364767 1364768 1364769 1364770 1364771 1364772 1364773 1364774 1364775 1364776
 1364777 1364778 1364779 1364780 1364781 1364782 1364783 1364784 1364785 1364786
 1364787 1364788 1364789 1364790 1364791 1364792 102511 102512 102513 102514
 102515 102516 102517 102518 102519 102520 102521 102522 102523 102524
 102525 102526 102527 102528 102529 102530 102531 102532 102533 102534
 102535 102536 102537 102538 102539 102540 102541 102542 102543 102544
 102545 102546 102547 102548 102549 102550 102551 102552 102553 102554
 102555 102556 102557 102558 102559 102560 102561 102562 102563 102564
 102565 102566 102567 102568 102569 102570 102571 102572 102573 102574
 102575 102576 102577 102578 102579 102580 102581 102582 102583 1365344
 1365345 1365346 1365347 1365348 1365349 1365350 1365351 1365352 1365353 1365354
 1365355 1365356 1365357 1365358 1365359 1365360 1365361 1365362 1365363 1365364
 1365365 1365366 1365367 1365368 1365369 1365370 1365371 1365372 1365373 1365374
 1365375 1365376 1365377 1365378 1365379 1365380 1365381 1365382 1365383 1365384
 1365385 1365386 1365387 1365388 1365389 1365390 1365391 1365392 1365393 1365394
 1365395 1365396 1365397 1365398 1365399 1365400 1365401 1365402 1365403 1365404
 1365405 1365406 1365407 1365408 1365409 1365410 1365411 103130 103131 103132
 103133 103134 103135 103136 103137 103138 103139 103140 103141 103142
 103143 103144 103145 103146 103147 103148 103149 103150 103151 103152
 103153 103154 103155 103156 103157 103158 103159 103160 103161 103162
 103163 103164 103165 103166 103167 103168 103169 103170 103171 103172
 103173 103174 103175 103176 103177 103178 103179 103180 103181 103182
 103183 103184 103185 103186 103187 103188 103189 103190 103191 103192
 103193 103194 103195 103196 103197 103198 103199 103200 103201 1365962
 1365963 103204 103205 103206 103207 103208 103209 1365970 1365971 1365972
 1365973 1365974 1365975 1365976 1365977 1365978 1365979 1365980 1365981 1365982
 1365983 1365984 1365985 1365986 1365987 1365988 1365989 1365990 1365991 1365992
 1365993 1365994 1365995 1365996 1365997 1365998 1365999 1366000 1366001 1366002
 1366003 1366004 1366005 1366006 1366007 1366008 1366009 1366010 1366011 1366012
 1366013 1366014 1366015 1366016 1366017 1366018 1366019 1366020 1366021 1366022
 1366023 1366024 1366025 1366026 1366027 1366028 1366029 1366030 103749 103750
 103751 103752 103753 103754 103755 103756 103757 103758 103759 103760
 103761 103762 103763 103764 103765 103766 103767 103768 103769 103770
 103771 103772 103773 103774 103775 103776 103777 103778 103779 103780
 103781 103782 103783 103784 103785 103786 103787 103788 103789 103790
 103791 103792 103793 103794 103795 103796 103797 103798 103799 103800
 103801 103802 103803 103804 103805 103806 103807 103808 103809 103810
 103811 103812 103813 103814 1366575 103816 103817 103818 103819 103820
 1366581 1366582 103823 103824 103825 103826 103827 103828 103829 1366590
 1366591 1366592 1366593 1366594 1366595 1366596 1366597 1366598 1366599 1366600
 1366601 1366602 1366603 1366604 1366605 1366606 1366607 1366608 1366609 1366610
 1366611 1366612 1366613 1366614 1366615 1366616 1366617 1366618 1366619 1366620
 1366621 1366622 1366623 1366624 1366625 1366626 1366627 1366628 1366629 1366630
 1366631 1366632 1366633 1366634 1366635 1366636 1366637 1366638 1366639 1366640
 1366641 1366642 1366643 1366644 1366645 1366646 1366647 1366648 1366649 104368
 104369 104370 104371 104372 104373 104374 104375 104376 104377 104378
 104379 104380 104381 104382 104383 104384 104385 104386 104387 104388
 104389 104390 104391 104392 104393 104394 104395 104396 104397 104398
 104399 104400 104401 104402 104403 104404 104405 104406 104407 104408
 104409 104410 104411 104412 104413 104414 104415 104416 104417 104418
 104419 104420 104421 104422 104423 104424 104425 104426 104427 104428
 104429 104430 104431 104432 104433 1367194 1367195 104436 104437 1367198
 104439 1367200 1367201 104442 104443 104444 104445 104446 104447 1367208
 1367209 1367210 1367211 1367212 1367213 1367214 1367215 1367216 1367217 1367218
 1367219 1367220 1367221 1367222 1367223 1367224 1367225 1367226 1367227 1367228
 1367229 1367230 1367231 1367232 1367233 1367234 1367235 1367236 1367237 1367238
 1367239 1367240 1367241 1367242 1367243 1367244 1367245 1367246 1367247 1367248
 1367249 1367250 1367251 1367252 1367253 1367254 1367255 1367256 1367257 1367258
 1367259 1367260 1367261 1367262 1367263 1367264 1367265 1367266 1367267 1367268
 104987 104988 104989 104990 104991 104992 104993 104994 104995 104996
 104997 104998 104999 105000 105001 105002 105003 105004 105005 105006
 105007 105008 105009 105010 105011 105012 105013 105014 105015 105016
 105017 105018 105019 105020 105021 105022 105023 105024 105025 105026
 105027 105028 105029 105030 105031 105032 105033 105034 105035 105036
 105037 105038 105039 105040 105041 105042 105043 105044 105045 105046
 105047 105048 105049 105050 105051 105052 105053 105054 105055 105056
 105057 105058 1367819 1367820 1367821 105062 105063 1367824 1367825 1367826
 1367827 1367828 1367829 1367830 1367831 1367832 1367833 1367834 1367835 1367836
 1367837 1367838 1367839 1367840 1367841 1367842 1367843 1367844 1367845 1367846
 1367847 1367848 1367849 1367850 1367851 1367852 1367853 1367854 1367855 1367856
 1367857 1367858 1367859 1367860 1367861 1367862 1367863 1367864 1367865 1367866
 1367867 1367868 1367869 1367870 1367871 1367872 1367873 1367874 1367875 1367876
 1367877 1367878 1367879 1367880 1367881 1367882 1367883 1367884 1367885 1367886
 1367887 1367888 105606 105607 105608 105609 105610 105611 105612 105613
 105614 105615 105616 105617 105618 105619 105620 105621 105622 105623
 105624 105625 105626 105627 105628 105629 105630 105631 105632 105633
 105634 105635 105636 105637 105638 105639 105640 105641 105642 105643
 105644 105645 105646 105647 105648 105649 105650 105651 105652 105653
 105654 105655 105656 105657 105658 105659 105660 105661 105662 105663
 105664 105665 105666 105667 105668 105669 105670 105671 105672 105673
 105674 1368435 1368436 1368437 1368438 1368439 1368440 1368441 1368442 1368443
 1368444 1368445 1368446 1368447 1368448 1368449 1368450 1368451 1368452 1368453
 1368454 1368455 1368456 1368457 1368458 1368459 1368460 1368461 1368462 1368463
 1368464 1368465 1368466 1368467 1368468 1368469 1368470 1368471 1368472 1368473
 1368474 1368475 1368476 1368477 1368478 1368479 1368480 1368481 1368482 1368483
 1368484 1368485 1368486 1368487 1368488 1368489 1368490 1368491 1368492 1368493
 1368494 1368495 1368496 1368497 1368498 1368499 1368500 1368501 1368502 1368503
 1368504 1368505 1368506 1368507 1368508 106225 106226 106227 106228 106229
 106230 106231 106232 106233 106234 106235 1368996 106237 106238 1368999
 106240 106241 106242 106243 106244 106245 106246 106247 106248 106249
 106250 106251 106252 106253 106254 106255 106256 106257 106258 106259
 106260 106261 106262 106263 106264 106265 106266 106267 106268 106269
 106270 106271 106272 106273 106274 106275 106276 106277 106278 106279
 106280 106281 106282 106283 106284 106285 106286 106287 106288 106289
 106290 1369051 106292 106293 106294 106295 1369056 1369057 1369058 1369059
 1369060 1369061 1369062 1369063 1369064 1369065 1369066 1369067 1369068 1369069
 1369070 1369071 1369072 1369073 1369074 1369075 1369076 1369077 1369078 1369079
 1369080 1369081 1369082 1369083 1369084 1369085 1369086 1369087 1369088 1369089
 1369090 1369091 1369092 1369093 1369094 1369095 1369096 1369097 1369098 1369099
 1369100 1369101 1369102 1369103 1369104 1369105 1369106 1369107 1369108 1369109
 1369110 1369111 1369112 1369113 1369114 1369115 1369116 1369117 1369118 1369119
 1369120 1369121 1369122 1369123 1369124 1369125 1369126 1369127 1369128 1369129
 106844 106845 106846 106847 106848 106849 106850 106851 106852 106853
 106854 106855 106856 106857 106858 106859 106860 106861 106862 106863
 106864 106865 106866 106867 106868 106869 106870 106871 106872 106873
 106874 106875 106876 106877 106878 106879 106880 106881 106882 106883
 106884 106885 106886 106887 106888 106889 106890 106891 106892 106893
 106894 106895 106896 106897 106898 106899 106900 106901 106902 106903
 106904 106905 106906 106907 106908 106909 106910 1369671 106912 106913
 106914 1369675 1369676 1369677 1369678 1369679 1369680 1369681 1369682 1369683
 1369684 1369685 1369686 1369687 1369688 1369689 1369690 1369691 1369692 1369693
 1369694 1369695 1369696 1369697 1369698 1369699 1369700 1369701 1369702 1369703
 1369704 1369705 1369706 1369707 1369708 1369709 1369710 1369711 1369712 1369713
 1369714 1369715 1369716 1369717 1369718 1369719 1369720 1369721 1369722 1369723
 1369724 1369725 1369726 1369727 1369728 1369729 1369730 1369731 1369732 1369733
 1369734 1369735 1369736 1369737 1369738 1369739 1369740 1369741 1369742 1369743
 1369744 1369745 1369746 1369747 1369748 1369749 107463 107464 107465 107466
 107467 107468 107469 107470 107471 107472 107473 107474 107475 107476
 107477 107478 107479 107480 107481 107482 107483 107484 107485 107486
 107487 107488 107489 107490 107491 107492 107493 107494 107495 107496
 107497 107498 107499 107500 107501 107502 107503 107504 107505 107506
 107507 107508 107509 107510 107511 107512 107513 107514 107515 107516
 107517 107518 107519 107520 107521 107522 107523 107524 107525 107526
 107527 107528 107529 107530 107531 1370292 107533 107534 107535 1370296
 1370297 1370298 1370299 1370300 1370301 1370302 1370303 1370304 1370305 1370306
 1370307 1370308 1370309 1370310 1370311 1370312 1370313 1370314 1370315 1370316
 1370317 1370318 1370319 1370320 1370321 1370322 1370323 1370324 1370325 1370326
 1370327 1370328 1370329 1370330 1370331 1370332 1370333 1370334 1370335 1370336
 1370337 1370338 1370339 1370340 1370341 1370342 1370343 1370344 1370345 1370346
 1370347 1370348 1370349 1370350 1370351 1370352 1370353 1370354 1370355 1370356
 1370357 1370358 1370359 1370360 1370361 1370362 1370363 1370364 1370365 1370366
 1370367 1370368 1370369 108082 108083 108084 108085 108086 108087 108088
 108089 108090 108091 108092 108093 108094 108095 108096 108097 108098
 108099 108100 108101 108102 108103 108104 108105 108106 108107 108108
 108109 108110 108111 108112 108113 108114 108115 108116 108117 108118
 108119 108120 108121 108122 108123 108124 108125 108126 108127 108128
 108129 108130 108131 108132 108133 108134 108135 108136 108137 108138
 108139 108140 108141 108142 108143 108144 108145 108146 108147 108148
 1370909 1370910 1370911 1370912 1370913 1370914 1370915 1370916 1370917 1370918
 1370919 1370920 1370921 1370922 1370923 1370924 1370925 1370926 1370927 1370928
 1370929 1370930 1370931 1370932 1370933 1370934 1370935 1370936 1370937 1370938
 1370939 1370940 1370941 1370942 1370943 1370944 1370945 1370946 1370947 1370948
 1370949 1370950 1370951 1370952 1370953 1370954 1370955 1370956 1370957 1370958
 1370959 1370960 1370961 1370962 1370963 1370964 1370965 1370966 1370967 1370968
 1370969 1370970 1370971 1370972 1370973 1370974 1370975 1370976 1370977 1370978
 108219 108220 108221 1370982 108223 108224 1370985 1370986 1370987 1370988
 1370989 108701 108702 108703 108704 108705 108706 108707 108708 108709
 108710 108711 108712 108713 108714 108715 108716 108717 108718 108719
 108720 108721 108722 108723 108724 108725 108726 108727 108728 108729
 108730 108731 108732 108733 108734 108735 108736 108737 108738 108739
 108740 108741 108742 108743 108744 108745 108746 108747 108748 108749
 108750 108751 108752 108753 108754 108755 108756 108757 108758 108759
 108760 108761 108762 108763 108764 108765 108766 1371527 1371528 1371529
 1371530 1371531 1371532 1371533 1371534 1371535 1371536 1371537 1371538 1371539
 1371540 1371541 1371542 1371543 1371544 1371545 1371546 1371547 1371548 1371549
 1371550 1371551 1371552 1371553 1371554 1371555 1371556 1371557 1371558 1371559
 1371560 1371561 1371562 1371563 1371564 1371565 1371566 1371567 1371568 1371569
 1371570 1371571 1371572 1371573 1371574 1371575 1371576 1371577 1371578 1371579
 1371580 1371581 1371582 1371583 1371584 1371585 1371586 1371587 1371588 1371589
 1371590 1371591 1371592 1371593 1371594 1371595 1371596 1371597 108838 108839
 108840 108841 108842 108843 108844 1371605 1371606 1371607 108848 108849
 109320 109321 109322 109323 109324 109325 109326 109327 109328 109329
 109330 109331 109332 1372093 1372094 109335 109336 109337 109338 109339
 109340 109341 109342 109343 109344 109345 109346 109347 109348 109349
 109350 109351 109352 109353 109354 109355 109356 109357 109358 109359
 109360 109361 109362 109363 109364 109365 109366 109367 109368 109369
 109370 109371 109372 109373 109374 109375 109376 109377 109378 109379
 109380 109381 109382 109383 109384 109385 1372146 1372147 1372148 1372149
 1372150 1372151 1372152 1372153 1372154 1372155 1372156 1372157 1372158 1372159
 1372160 1372161 1372162 1372163 1372164 1372165 1372166 1372167 1372168 1372169
 1372170 1372171 1372172 1372173 1372174 1372175 1372176 1372177 1372178 1372179
 1372180 1372181 1372182 1372183 1372184 1372185 1372186 1372187 1372188 1372189
 1372190 1372191 1372192 1372193 1372194 1372195 1372196 1372197 1372198 1372199
 1372200 1372201 1372202 1372203 1372204 1372205 1372206 1372207 1372208 1372209
 1372210 1372211 1372212 1372213 1372214 1372215 1372216 109457 109458 109459
 109460 109461 109462 109463 109464 109465 109466 109467 109468 109469
 109939 109940 109941 109942 109943 109944 109945 1372706 109947 109948
 109949 1372710 1372711 1372712 1372713 1372714 109955 109956 109957 109958
 109959 109960 109961 109962 109963 109964 109965 109966 109967 109968
 109969 109970 109971 109972 109973 109974 109975 109976 109977 109978
 109979 109980 109981 109982 109983 109984 109985 109986 109987 109988
 109989 109990 109991 109992 109993 109994 109995 109996 109997 109998
 109999 110000 110001 110002 110003 110004 1372765 1372766 1372767 1372768
 1372769 1372770 1372771 1372772 1372773 1372774 1372775 1372776 1372777 1372778
 1372779 1372780 1372781 1372782 1372783 1372784 1372785 1372786 1372787 1372788
 1372789 1372790 1372791 1372792 1372793 1372794 1372795 1372796 1372797 1372798
 1372799 1372800 1372801 1372802 1372803 1372804 1372805 1372806 1372807 1372808
 1372809 1372810 1372811 1372812 1372813 1372814 1372815 1372816 1372817 1372818
 1372819 1372820 1372821 1372822 1372823 1372824 1372825 1372826 1372827 1372828
 1372829 1372830 1372831 1372832 1372833 1372834 1372835 1372836 1372837 110078
 110079 110080 110081 110082 110083 110084 110085 110086 110087 110088
 110558 110559 110560 1373321 110562 110563 1373324 1373325 1373326 1373327
 1373328 1373329 1373330 1373331 1373332 1373333 110574 110575 110576 110577
 110578 110579 110580 110581 110582 110583 110584 110585 110586 110587
 110588 110589 110590 110591 110592 110593 110594 110595 110596 110597
 110598 110599 110600 110601 110602 110603 110604 110605 110606 110607
 110608 110609 110610 110611 110612 110613 110614 110615 110616 110617
 110618 110619 110620 110621 110622 110623 1373384 1373385 1373386 1373387
 1373388 1373389 1373390 1373391 1373392 1373393 1373394 1373395 1373396 1373397
 1373398 1373399 1373400 1373401 1373402 1373403 1373404 1373405 1373406 1373407
 1373408 1373409 1373410 1373411 1373412 1373413 1373414 1373415 1373416 1373417
 1373418 1373419 1373420 1373421 1373422 1373423 1373424 1373425 1373426 1373427
 1373428 1373429 1373430 1373431 1373432 1373433 1373434 1373435 1373436 1373437