# File generated by Flopy version 3.3.4 on 05/14/2021 at 09:58:04.
BEGIN options
  DIGITS  10
  PRINT_INPUT
END options

BEGIN continuous  FILEOUT  neversink.head.obs
  414525074360601  head  1 211 174
  414525074360601  head  2 211 174
  414525074360601  head  4 211 174
  o10577  head  4 375 466
  o10942  head  1 628 424
  o10942  head  2 628 424
  o10942  head  3 628 424
  o10942  head  4 628 424
  o11068  head  1 311 505
  o11068  head  2 311 505
  o11068  head  4 311 505
  o5124  head  1 264 378
  o5124  head  4 264 378
  o6269  head  1 64 171
  o6269  head  4 64 171
  o7421  head  1 326 525
  o7421  head  4 326 525
  o8073  head  1 323 529
  o8073  head  4 323 529
  o8419  head  1 520 401
  o8419  head  4 520 401
  sv1011  head  1 367 501
  sv1011  head  2 367 501
  sv1011  head  3 367 501
  sv1011  head  4 367 501
  sv1014  head  4 326 260
  sv1017  head  1 472 310
  sv1017  head  4 472 310
  sv1029  head  4 529 386
  sv1032  head  1 511 411
  sv1032  head  4 511 411
  sv1050  head  1 83 164
  sv1050  head  4 83 164
  sv1052  head  1 146 264
  sv1052  head  4 146 264
  sv1064  head  1 494 309
  sv1064  head  4 494 309
  sv1070  head  1 537 412
  sv1070  head  4 537 412
  sv1095  head  1 418 331
  sv1095  head  4 418 331
  sv1098  head  1 530 479
  sv1098  head  2 530 479
  sv1098  head  3 530 479
  sv1098  head  4 530 479
  sv1108  head  1 117 185
  sv1108  head  4 117 185
  sv1110  head  1 468 465
  sv1110  head  4 468 465
  sv1116  head  4 258 249
  sv1119  head  1 463 288
  sv1119  head  4 463 288
  sv1125  head  4 641 478
  sv1158  head  1 461 486
  sv1158  head  2 461 486
  sv1158  head  3 461 486
  sv1158  head  4 461 486
  sv1159  head  1 531 502
  sv1159  head  4 531 502
  sv1161  head  1 531 413
  sv1161  head  4 531 413
  sv1162  head  1 525 419
  sv1162  head  4 525 419
  sv1164  head  1 513 419
  sv1164  head  4 513 419
  sv1173  head  1 507 415
  sv1173  head  4 507 415
  sv1179  head  1 491 310
  sv1179  head  4 491 310
  sv1188  head  4 375 353
  sv1190  head  1 559 371
  sv1190  head  4 559 371
  sv1191  head  1 432 481
  sv1191  head  2 432 481
  sv1191  head  3 432 481
  sv1191  head  4 432 481
  sv1206  head  4 536 419
  sv1208  head  1 427 213
  sv1208  head  4 427 213
  sv1209  head  1 393 356
  sv1209  head  4 393 356
  sv1219  head  1 646 409
  sv1219  head  3 646 409
  sv1219  head  4 646 409
  sv1227  head  1 517 422
  sv1227  head  4 517 422
  sv1242  head  1 516 416
  sv1242  head  4 516 416
  sv1249  head  1 518 422
  sv1249  head  4 518 422
  sv1255  head  1 428 214
  sv1255  head  4 428 214
  sv1257  head  1 514 414
  sv1257  head  4 514 414
  sv1258  head  1 545 428
  sv1258  head  4 545 428
  sv1260  head  1 70 127
  sv1260  head  4 70 127
  sv1273  head  1 527 417
  sv1273  head  4 527 417
  sv1300  head  1 203 130
  sv1300  head  4 203 130
  sv1302  head  1 527 420
  sv1302  head  4 527 420
  sv1314  head  1 99 96
  sv1314  head  4 99 96
  sv1320  head  4 357 259
  sv1321  head  1 532 421
  sv1321  head  4 532 421
  sv1322  head  1 520 420
  sv1322  head  4 520 420
  sv1323  head  4 522 403
  sv1324  head  1 523 423
  sv1324  head  4 523 423
  sv1327  head  1 364 262
  sv1327  head  4 364 262
  sv1328  head  1 521 416
  sv1328  head  4 521 416
  sv1347  head  1 474 350
  sv1347  head  4 474 350
  sv1353  head  4 544 419
  sv1358  head  1 129 79
  sv1358  head  4 129 79
  sv1361  head  1 462 277
  sv1361  head  4 462 277
  sv1372  head  4 544 419
  sv1373  head  1 344 544
  sv1373  head  4 344 544
  sv1383  head  1 521 417
  sv1383  head  4 521 417
  sv1389  head  1 463 471
  sv1389  head  4 463 471
  sv1391  head  4 518 510
  sv1392  head  4 520 510
  sv1394  head  4 502 413
  sv1395  head  4 534 423
  sv1404  head  1 540 423
  sv1404  head  4 540 423
  sv1405  head  1 521 422
  sv1405  head  4 521 422
  sv1406  head  1 522 421
  sv1406  head  4 522 421
  sv1408  head  4 354 295
  sv1422  head  1 632 423
  sv1422  head  2 632 423
  sv1422  head  3 632 423
  sv1422  head  4 632 423
  sv1429  head  4 540 411
  sv1444  head  1 524 413
  sv1444  head  4 524 413
  sv1454  head  1 471 467
  sv1454  head  4 471 467
  sv1458  head  4 537 419
  sv1469  head  1 469 469
  sv1469  head  4 469 469
  sv1478  head  1 312 183
  sv1478  head  2 312 183
  sv1478  head  3 312 183
  sv1478  head  4 312 183
  sv1481  head  1 504 418
  sv1481  head  4 504 418
  sv1493  head  1 395 367
  sv1493  head  4 395 367
  sv1494  head  4 387 255
  sv1496  head  4 395 445
  sv1500  head  1 120 198
  sv1500  head  4 120 198
  sv1507  head  4 536 426
  sv1516  head  1 425 350
  sv1516  head  4 425 350
  sv1517  head  1 438 346
  sv1517  head  4 438 346
  sv1518  head  1 448 353
  sv1518  head  4 448 353
  sv1519  head  1 443 356
  sv1519  head  4 443 356
  sv1525  head  4 380 464
  sv1527  head  4 352 288
  sv1534  head  4 535 417
  sv1542  head  4 537 418
  sv1546  head  1 67 134
  sv1546  head  4 67 134
  sv1549  head  4 516 518
  sv1550  head  4 515 519
  sv1596  head  4 581 494
  sv1597  head  1 223 324
  sv1597  head  4 223 324
  sv1607  head  1 481 236
  sv1607  head  4 481 236
  sv1619  head  1 122 201
  sv1619  head  4 122 201
  sv1620  head  1 531 389
  sv1620  head  4 531 389
  sv1657  head  1 481 240
  sv1657  head  4 481 240
  sv1658  head  4 348 393
  sv1660  head  1 498 413
  sv1660  head  4 498 413
  sv1668  head  1 493 308
  sv1668  head  4 493 308
  sv1674  head  1 116 185
  sv1674  head  4 116 185
  sv1682  head  1 521 398
  sv1682  head  4 521 398
  sv1698  head  1 410 245
  sv1698  head  4 410 245
  sv1710  head  1 412 253
  sv1710  head  4 412 253
  sv1718  head  1 303 180
  sv1718  head  2 303 180
  sv1718  head  3 303 180
  sv1718  head  4 303 180
  sv1719  head  1 487 359
  sv1719  head  4 487 359
  sv1723  head  1 209 134
  sv1723  head  4 209 134
  sv1737  head  1 522 417
  sv1737  head  4 522 417
  sv1767  head  1 386 486
  sv1767  head  2 386 486
  sv1767  head  3 386 486
  sv1767  head  4 386 486
  sv1772  head  4 537 417
  sv1776  head  1 410 335
  sv1776  head  4 410 335
  sv1778  head  4 60 182
  sv1780  head  1 388 486
  sv1780  head  2 388 486
  sv1780  head  3 388 486
  sv1780  head  4 388 486
  sv1790  head  4 192 224
  sv1791  head  1 385 492
  sv1791  head  2 385 492
  sv1791  head  3 385 492
  sv1791  head  4 385 492
  sv1796  head  4 60 182
  sv1798  head  1 169 213
  sv1798  head  4 169 213
  sv1803  head  1 169 213
  sv1803  head  4 169 213
  sv1811  head  4 469 272
  sv1814  head  1 144 213
  sv1814  head  4 144 213
  sv1817  head  1 95 116
  sv1817  head  4 95 116
  sv1822  head  1 185 213
  sv1822  head  4 185 213
  sv1823  head  4 176 219
  sv1824  head  4 181 214
  sv1825  head  4 556 397
  sv1831  head  1 409 354
  sv1831  head  4 409 354
  sv1834  head  4 180 183
  sv1838  head  1 415 335
  sv1838  head  4 415 335
  sv1849  head  1 568 358
  sv1849  head  4 568 358
  sv1871  head  1 417 315
  sv1871  head  4 417 315
  sv1874  head  1 432 442
  sv1874  head  4 432 442
  sv1875  head  1 378 313
  sv1875  head  4 378 313
  sv1889  head  4 182 191
  sv1895  head  4 376 464
  sv1901  head  1 162 113
  sv1901  head  4 162 113
  sv1916  head  1 143 48
  sv1916  head  4 143 48
  sv1926  head  4 536 417
  sv1927  head  1 516 419
  sv1927  head  4 516 419
  sv1929  head  1 538 421
  sv1929  head  4 538 421
  sv1933  head  1 81 151
  sv1933  head  4 81 151
  sv1941  head  1 190 152
  sv1941  head  2 190 152
  sv1941  head  3 190 152
  sv1941  head  4 190 152
  sv1946  head  1 143 217
  sv1946  head  4 143 217
  sv1950  head  4 380 462
  sv2007  head  1 16 134
  sv2007  head  4 16 134
  sv2013  head  1 494 310
  sv2013  head  4 494 310
  sv2017  head  1 121 19
  sv2017  head  4 121 19
  sv2053  head  4 117 36
  sv2072  head  1 465 464
  sv2072  head  4 465 464
  sv2079  head  1 446 433
  sv2079  head  4 446 433
  sv2132  head  1 593 459
  sv2132  head  2 593 459
  sv2132  head  4 593 459
  sv2156  head  1 150 213
  sv2156  head  4 150 213
  sv2162  head  1 411 354
  sv2162  head  4 411 354
  sv2163  head  1 406 348
  sv2163  head  4 406 348
  sv2172  head  1 476 466
  sv2172  head  4 476 466
  sv2193  head  4 572 356
  sv2207  head  1 561 480
  sv2207  head  4 561 480
  sv2225  head  1 42 112
  sv2225  head  4 42 112
  sv2236  head  1 420 325
  sv2236  head  4 420 325
  sv2237  head  1 420 324
  sv2237  head  4 420 324
  sv2244  head  1 401 355
  sv2244  head  4 401 355
  sv2249  head  1 378 487
  sv2249  head  2 378 487
  sv2249  head  4 378 487
  sv2266  head  1 535 410
  sv2266  head  4 535 410
  sv2267  head  1 531 419
  sv2267  head  4 531 419
  sv2268  head  1 523 418
  sv2268  head  4 523 418
  sv2269  head  1 355 330
  sv2269  head  4 355 330
  sv2272  head  1 524 518
  sv2272  head  4 524 518
  sv2295  head  1 543 459
  sv2295  head  4 543 459
  sv2316  head  4 161 274
  sv2327  head  1 250 321
  sv2327  head  4 250 321
  sv2365  head  4 98 132
  sv2396  head  1 507 414
  sv2396  head  4 507 414
  sv2399  head  1 427 216
  sv2399  head  4 427 216
  sv2401  head  1 543 404
  sv2401  head  4 543 404
  sv2407  head  1 521 413
  sv2407  head  4 521 413
  sv2408  head  1 519 418
  sv2408  head  4 519 418
  sv2409  head  1 531 413
  sv2409  head  4 531 413
  sv2429  head  4 325 174
  sv2437  head  4 308 269
  sv2454  head  4 519 516
  sv2464  head  4 345 394
  sv2466  head  1 134 82
  sv2466  head  4 134 82
  sv2486  head  1 36 129
  sv2486  head  4 36 129
  sv2499  head  1 317 188
  sv2499  head  2 317 188
  sv2499  head  3 317 188
  sv2499  head  4 317 188
  sv2512  head  1 521 421
  sv2512  head  4 521 421
  sv2521  head  1 461 275
  sv2521  head  4 461 275
  sv2525  head  1 278 286
  sv2525  head  4 278 286
  sv2528  head  4 427 475
  sv2533  head  1 67 133
  sv2533  head  4 67 133
  sv2541  head  1 283 242
  sv2541  head  4 283 242
  sv2544  head  1 559 369
  sv2544  head  4 559 369
  sv2560  head  1 458 233
  sv2560  head  4 458 233
  sv2561  head  1 458 233
  sv2561  head  4 458 233
  sv2566  head  1 172 213
  sv2566  head  4 172 213
  sv2582  head  1 151 214
  sv2582  head  4 151 214
  sv2599  head  1 266 345
  sv2599  head  4 266 345
  sv2612  head  1 470 301
  sv2612  head  4 470 301
  sv2618  head  1 259 257
  sv2618  head  4 259 257
  sv2638  head  4 297 291
  sv2639  head  1 490 303
  sv2639  head  4 490 303
  sv2644  head  4 297 293
  sv2647  head  4 298 293
  sv2649  head  1 294 291
  sv2649  head  4 294 291
  sv2668  head  1 541 424
  sv2668  head  4 541 424
  sv2680  head  1 525 417
  sv2680  head  4 525 417
  sv2686  head  1 377 381
  sv2686  head  4 377 381
  sv2693  head  4 413 472
  sv2738  head  1 403 256
  sv2738  head  4 403 256
  sv2761  head  1 523 388
  sv2761  head  4 523 388
  sv2768  head  1 423 393
  sv2768  head  4 423 393
  sv2769  head  1 440 369
  sv2769  head  4 440 369
  sv2771  head  1 430 361
  sv2771  head  4 430 361
  sv2775  head  4 539 417
  sv2776  head  4 124 234
  sv2778  head  4 127 235
  sv2785  head  1 521 396
  sv2785  head  4 521 396
  sv2797  head  4 255 264
  sv2798  head  4 259 263
  sv2801  head  1 65 129
  sv2801  head  4 65 129
  sv2855  head  1 470 338
  sv2855  head  4 470 338
  sv2856  head  1 484 337
  sv2856  head  4 484 337
  sv2862  head  1 155 206
  sv2862  head  4 155 206
  sv2875  head  1 520 401
  sv2875  head  4 520 401
  sv2887  head  4 546 411
  sv2888  head  1 549 395
  sv2888  head  4 549 395
  sv2904  head  4 134 234
  sv2905  head  1 131 231
  sv2905  head  4 131 231
  sv2942  head  4 285 212
  sv2943  head  1 133 218
  sv2943  head  4 133 218
  sv2963  head  1 135 218
  sv2963  head  4 135 218
  sv2971  head  1 458 334
  sv2971  head  4 458 334
  sv2972  head  1 409 393
  sv2972  head  4 409 393
  sv2974  head  4 482 349
  sv3010  head  1 380 485
  sv3010  head  2 380 485
  sv3010  head  4 380 485
  sv3022  head  4 521 384
  sv3054  head  1 381 301
  sv3054  head  4 381 301
  sv3071  head  1 477 333
  sv3071  head  4 477 333
  sv3074  head  1 464 328
  sv3074  head  4 464 328
  sv3075  head  1 390 321
  sv3075  head  4 390 321
  sv3117  head  4 358 197
  sv3127  head  1 485 264
  sv3127  head  4 485 264
  sv3157  head  1 273 211
  sv3157  head  4 273 211
  sv3158  head  1 135 136
  sv3158  head  2 135 136
  sv3158  head  3 135 136
  sv3158  head  4 135 136
  sv3168  head  1 48 129
  sv3168  head  4 48 129
  sv3183  head  1 76 192
  sv3183  head  4 76 192
  sv3200  head  1 530 391
  sv3200  head  4 530 391
  sv3210  head  4 291 201
  sv3214  head  4 408 473
  sv3239  head  1 204 131
  sv3239  head  4 204 131
  sv3265  head  1 141 137
  sv3265  head  2 141 137
  sv3265  head  3 141 137
  sv3265  head  4 141 137
  sv3303  head  1 35 144
  sv3303  head  4 35 144
  sv3304  head  1 157 159
  sv3304  head  2 157 159
  sv3304  head  4 157 159
  sv3324  head  4 215 166
  sv3347  head  1 486 311
  sv3347  head  4 486 311
  sv3358  head  1 523 417
  sv3358  head  4 523 417
  sv3391  head  1 342 208
  sv3391  head  2 342 208
  sv3391  head  3 342 208
  sv3391  head  4 342 208
  sv3398  head  1 216 378
  sv3398  head  4 216 378
  sv3417  head  4 474 282
  sv3423  head  4 543 417
  sv3434  head  4 395 234
  sv3438  head  1 422 458
  sv3438  head  4 422 458
  sv3515  head  1 97 120
  sv3515  head  4 97 120
  sv3518  head  3 320 217
  sv3518  head  4 320 217
  sv3541  head  1 59 137
  sv3541  head  4 59 137
  sv3547  head  1 261 236
  sv3547  head  4 261 236
  sv3571  head  4 82 134
  sv3577  head  1 503 313
  sv3577  head  4 503 313
  sv3596  head  1 142 138
  sv3596  head  2 142 138
  sv3596  head  3 142 138
  sv3596  head  4 142 138
  sv3625  head  1 328 365
  sv3625  head  4 328 365
  sv3636  head  1 418 214
  sv3636  head  4 418 214
  sv3639  head  1 142 44
  sv3639  head  4 142 44
  sv3654  head  1 232 420
  sv3654  head  4 232 420
  sv3667  head  1 539 420
  sv3667  head  4 539 420
  sv3675  head  1 538 403
  sv3675  head  4 538 403
  sv3681  head  1 341 246
  sv3681  head  4 341 246
  sv3703  head  1 531 423
  sv3703  head  4 531 423
  sv3710  head  1 265 187
  sv3710  head  2 265 187
  sv3710  head  3 265 187
  sv3710  head  4 265 187
  sv3724  head  1 441 347
  sv3724  head  4 441 347
  sv3748  head  1 436 344
  sv3748  head  4 436 344
  sv3756  head  1 357 330
  sv3756  head  4 357 330
  sv3817  head  1 420 241
  sv3817  head  4 420 241
  sv3854  head  1 117 138
  sv3854  head  4 117 138
  sv3889  head  1 455 349
  sv3889  head  4 455 349
  sv3903  head  1 104 119
  sv3903  head  4 104 119
  sv3925  head  1 208 134
  sv3925  head  4 208 134
  sv3943  head  1 482 457
  sv3943  head  4 482 457
  sv3946  head  4 382 354
  sv3967  head  1 430 249
  sv3967  head  4 430 249
  sv3980  head  1 49 137
  sv3980  head  4 49 137
  sv3982  head  1 523 339
  sv3982  head  4 523 339
  sv3983  head  1 510 476
  sv3983  head  3 510 476
  sv3983  head  4 510 476
  sv3991  head  1 515 486
  sv3991  head  2 515 486
  sv3991  head  3 515 486
  sv3991  head  4 515 486
  sv3996  head  4 293 162
  sv3997  head  1 378 259
  sv3997  head  4 378 259
  sv4015  head  4 295 162
  sv4022  head  1 417 303
  sv4022  head  4 417 303
  sv4059  head  4 296 166
  sv4069  head  1 476 276
  sv4069  head  4 476 276
  sv4122  head  1 542 459
  sv4122  head  4 542 459
  sv4131  head  4 518 519
  sv4164  head  1 512 348
  sv4164  head  4 512 348
  sv4177  head  1 237 170
  sv4177  head  4 237 170
  sv4178  head  1 242 170
  sv4178  head  4 242 170
  sv4179  head  1 225 161
  sv4179  head  4 225 161
  sv4193  head  1 424 265
  sv4193  head  4 424 265
  sv4215  head  1 447 354
  sv4215  head  4 447 354
  sv4220  head  1 225 541
  sv4220  head  2 225 541
  sv4220  head  4 225 541
  sv4221  head  1 410 350
  sv4221  head  4 410 350
  sv4222  head  1 142 139
  sv4222  head  2 142 139
  sv4222  head  3 142 139
  sv4222  head  4 142 139
  sv4240  head  1 525 416
  sv4240  head  4 525 416
  sv4247  head  1 78 108
  sv4247  head  4 78 108
  sv4254  head  1 513 413
  sv4254  head  4 513 413
  sv4257  head  1 76 138
  sv4257  head  4 76 138
  sv4291  head  4 541 407
  sv4318  head  1 621 466
  sv4318  head  4 621 466
  sv4343  head  4 505 281
  sv4351  head  1 421 243
  sv4351  head  4 421 243
  sv4353  head  1 483 273
  sv4353  head  4 483 273
  sv4368  head  1 160 169
  sv4368  head  4 160 169
  sv4370  head  4 144 151
  sv4395  head  1 507 296
  sv4395  head  4 507 296
  sv4409  head  1 476 275
  sv4409  head  4 476 275
  sv4413  head  4 511 440
  sv4415  head  1 324 399
  sv4415  head  4 324 399
  sv4417  head  1 496 353
  sv4417  head  4 496 353
  sv4429  head  1 248 413
  sv4429  head  4 248 413
  sv4435  head  1 628 424
  sv4435  head  2 628 424
  sv4435  head  3 628 424
  sv4435  head  4 628 424
  sv4460  head  1 419 286
  sv4460  head  4 419 286
  sv4470  head  1 490 289
  sv4470  head  4 490 289
  sv4479  head  1 81 126
  sv4479  head  4 81 126
  sv4489  head  4 390 253
  sv4495  head  4 113 180
  sv4508  head  1 136 152
  sv4508  head  4 136 152
  sv4509  head  4 374 454
  sv4550  head  1 167 200
  sv4550  head  4 167 200
  sv4615  head  1 494 275
  sv4615  head  4 494 275
  sv4651  head  1 65 140
  sv4651  head  4 65 140
  sv4658  head  1 63 114
  sv4658  head  4 63 114
  sv700  head  4 481 260
  sv722  head  1 354 300
  sv722  head  4 354 300
  sv731  head  4 524 387
  sv740  head  1 520 516
  sv740  head  4 520 516
  sv748  head  1 514 412
  sv748  head  4 514 412
  sv759  head  1 62 137
  sv759  head  4 62 137
  sv760  head  1 373 211
  sv760  head  4 373 211
  sv772  head  1 457 475
  sv772  head  2 457 475
  sv772  head  4 457 475
  sv783  head  1 350 310
  sv783  head  4 350 310
  sv793  head  1 488 293
  sv793  head  4 488 293
  sv809  head  4 188 333
  sv810  head  1 205 205
  sv810  head  4 205 205
  sv835  head  4 536 423
  sv851  head  4 315 286
  sv852  head  1 521 391
  sv852  head  4 521 391
  sv867  head  1 65 140
  sv867  head  4 65 140
  sv869  head  1 478 531
  sv869  head  4 478 531
  sv898  head  1 455 357
  sv898  head  4 455 357
  sv905  head  4 537 417
  sv907  head  1 499 413
  sv907  head  4 499 413
  sv913  head  1 518 478
  sv913  head  2 518 478
  sv913  head  3 518 478
  sv913  head  4 518 478
  sv920  head  1 105 165
  sv920  head  4 105 165
  sv923  head  1 101 97
  sv923  head  2 101 97
  sv923  head  4 101 97
  sv931  head  1 132 69
  sv931  head  4 132 69
  sv937  head  1 53 113
  sv937  head  4 53 113
  sv943  head  1 507 418
  sv943  head  4 507 418
  sv946  head  4 528 386
  sv949  head  4 632 464
  sv953  head  1 626 424
  sv953  head  2 626 424
  sv953  head  3 626 424
  sv953  head  4 626 424
  sv967  head  1 491 312
  sv967  head  4 491 312
  sv969  head  4 526 387
  sv978  head  4 536 387
  sv991  head  4 411 465
  sv994  head  1 525 390
  sv994  head  4 525 390
  u1730  head  4 307 495
  u1936  head  1 239 469
  u1936  head  4 239 469
  u2053  head  1 212 307
  u2053  head  4 212 307
  u2084  head  1 297 508
  u2084  head  2 297 508
  u2084  head  3 297 508
  u2084  head  4 297 508
  u2243  head  4 100 288
  u2279  head  1 246 527
  u2279  head  2 246 527
  u2279  head  3 246 527
  u2279  head  4 246 527
  u2441  head  4 76 299
  u2686  head  1 253 507
  u2686  head  4 253 507
  u2744  head  4 217 501
  u2969  head  4 200 566
  u2982  head  1 87 382
  u2982  head  4 87 382
  u3288  head  1 252 507
  u3288  head  4 252 507
  u3433  head  4 266 338
  u3717  head  1 309 500
  u3717  head  2 309 500
  u3717  head  4 309 500
  u3741  head  1 469 361
  u3741  head  4 469 361
  u4315  head  1 250 320
  u4315  head  4 250 320
  u4328  head  1 195 252
  u4328  head  4 195 252
  u4724  head  1 181 323
  u4724  head  4 181 323
  u4825  head  1 228 308
  u4825  head  4 228 308
  u4851  head  1 262 402
  u4851  head  4 262 402
  u5000  head  1 119 194
  u5000  head  4 119 194
  u5083  head  1 261 321
  u5083  head  4 261 321
  u5100  head  1 177 304
  u5100  head  4 177 304
  u5180  head  1 177 304
  u5180  head  4 177 304
  u5326  head  1 178 517
  u5326  head  4 178 517
  u5393  head  1 122 197
  u5393  head  4 122 197
  u5438  head  1 198 367
  u5438  head  4 198 367
  u5567  head  1 132 353
  u5567  head  4 132 353
  u5597  head  1 140 332
  u5597  head  4 140 332
  u5599  head  1 146 331
  u5599  head  4 146 331
  u5600  head  1 144 328
  u5600  head  4 144 328
  u5601  head  1 141 329
  u5601  head  4 141 329
  u5668  head  1 219 376
  u5668  head  4 219 376
  u5669  head  1 198 247
  u5669  head  4 198 247
  u5770  head  4 195 263
  u5850  head  1 347 548
  u5850  head  4 347 548
  u5868  head  1 168 453
  u5868  head  4 168 453
  u5908  head  1 114 249
  u5908  head  4 114 249
  u5909  head  1 113 252
  u5909  head  4 113 252
  u5978  head  1 181 300
  u5978  head  4 181 300
  u7084  head  1 202 553
  u7084  head  2 202 553
  u7084  head  4 202 553
  u7172  head  1 255 421
  u7172  head  4 255 421
  u7190  head  1 179 312
  u7190  head  4 179 312
  u7274  head  1 245 414
  u7274  head  4 245 414
  u7411  head  1 223 279
  u7411  head  4 223 279
  u7452  head  4 101 308
  u7509  head  1 249 506
  u7509  head  4 249 506
  u7567  head  4 258 509
  u7726  head  4 281 605
  u7798  head  1 248 413
  u7798  head  4 248 413
  u7930  head  1 269 348
  u7930  head  4 269 348
  u7940  head  1 120 340
  u7940  head  4 120 340
  u7975  head  1 125 285
  u7975  head  4 125 285
  u8108  head  1 297 505
  u8108  head  2 297 505
  u8108  head  3 297 505
  u8108  head  4 297 505
  u8160  head  4 176 251
  u8161  head  1 166 250
  u8161  head  4 166 250
  u8254  head  2 288 511
  u8254  head  3 288 511
  u8254  head  4 288 511
  u8303  head  4 407 520
  u8309  head  1 139 338
  u8309  head  4 139 338
  u8311  head  1 219 377
  u8311  head  4 219 377
  u8339  head  1 211 488
  u8339  head  4 211 488
  u8432  head  1 139 343
  u8432  head  4 139 343
  u8468  head  1 228 537
  u8468  head  2 228 537
  u8468  head  3 228 537
  u8468  head  4 228 537
  u8483  head  1 378 298
  u8483  head  4 378 298
  u8491  head  1 274 325
  u8491  head  4 274 325
  u8543  head  1 301 332
  u8543  head  4 301 332
  u8544  head  4 390 272
  u8838  head  1 216 547
  u8838  head  2 216 547
  u8838  head  3 216 547
  u8838  head  4 216 547
  u8851  head  1 95 277
  u8851  head  4 95 277
  u8990  head  1 287 292
  u8990  head  4 287 292
  u9042  head  1 300 557
  u9042  head  4 300 557
END continuous  FILEOUT  neversink.head.obs

