# File generated by Flopy version 3.3.4 on 05/14/2021 at 09:58:04.
BEGIN options
  BUDGET  FILEOUT  neversink.cbc
  HEAD  FILEOUT  neversink.hds
END options

BEGIN period  1
  SAVE  budget  last
  SAVE  head  last
END period  1

