# File generated by Flopy version 3.3.4 on 05/14/2021 at 09:58:04.
BEGIN OPTIONS
  DIGITS  5
  PRINT_INPUT
END OPTIONS

BEGIN CONTINUOUS  FILEOUT  neversink.sfr.obs.output.csv
  1436500  downstream-flow  6700
  1366650  downstream-flow  11127
END CONTINUOUS  FILEOUT  neversink.sfr.obs.output.csv

