# MPSIM package for MODPATH 7, generated by Flopy.
neversink_mp_forward_weak_S.mpnam
neversink_mp_forward_weak_S.mplst
4 1 2 1 0 0
neversink_mp_forward_weak_S.mpend
neversink_mp_forward_weak_S.mppth
neversink_mp_forward_weak_S.timeseries
0
1
0
2
1
100 0.01
1
1
1
PG1
1
0.0
INTERNAL
3
1 29226
2 29226 1
 1 1 1
 278876 278877 278878 278879 1541640 1541641 1541642 1541643 1541644 1541645 1541646
 1541647 1541648 1541649 278890 278891 278892 1541653 1541654 1541655 1541656
 278897 278898 278899 278900 278901 278902 278903 278904 278905 278906
 278907 278908 278909 278910 278911 278912 278913 278914 278915 278916
 278917 278918 278919 278920 278921 278922 278923 278924 278925 278926
 278927 278928 278929 278930 278931 278932 278933 278934 1541695 1541696
 1541697 1541698 1541699 1541700 1541701 1541702 1541703 1541704 278945 278946
 278947 278948 278949 278950 278951 278952 278953 1541714 1541715 1541716
 1541717 1541718 1541719 1541720 1541721 1541722 1541723 1541724 1541725 1541726
 1541727 1541728 1541729 1541730 1541731 1541732 1541733 1541734 1541735 1541736
 1541737 278978 278979 278980 278981 278982 278983 278984 278985 278986
 278987 278988 278989 278990 278991 278992 278993 278994 278995 278996
 278997 278998 278999 279000 279001 279002 279003 279004 279005 279006
 279007 279008 279009 279010 279011 279012 279013 279014 279015 279016
 279017 279018 279019 279020 279021 279022 279023 279024 279025 279026
 279027 279028 279029 279030 279031 279032 279033 279034 279035 279036
 279037 279038 279039 279040 279041 279042 279043 279044 279045 279046
 279047 279048 1541809 1541810 1541811 1541812 1541813 1541814 1541815 1541816
 1541817 1541818 1541819 1541820 1541821 1541822 1541823 1541824 1541825 1541826
 1541827 1541828 1541829 1541830 1541831 1541832 1541833 1541834 1541835 1541836
 1541837 1541838 1541839 279495 279496 279497 279498 1542259 1542260 1542261
 1542262 1542263 1542264 1542265 1542266 1542267 279508 279509 279510 1542271
 1542272 1542273 1542274 1542275 1542276 279517 279518 279519 279520 1542281
 279522 279523 279524 279525 279526 279527 279528 279529 279530 279531
 279532 279533 279534 279535 279536 279537 279538 279539 279540 279541
 279542 279543 279544 279545 279546 279547 279548 279549 279550 1542311
 1542312 1542313 1542314 1542315 1542316 1542317 1542318 1542319 1542320 1542321
 1542322 1542323 279564 279565 279566 279567 279568 279569 279570 279571
 279572 1542333 1542334 1542335 1542336 1542337 1542338 1542339 1542340 1542341
 1542342 1542343 1542344 1542345 1542346 1542347 1542348 1542349 1542350 1542351
 1542352 1542353 1542354 1542355 1542356 279597 279598 279599 279600 279601
 279602 279603 279604 279605 279606 279607 279608 279609 279610 279611
 279612 279613 279614 279615 279616 279617 279618 279619 279620 279621
 279622 279623 279624 279625 279626 279627 279628 279629 279630 279631
 279632 279633 279634 279635 279636 279637 279638 279639 279640 279641
 279642 279643 279644 279645 279646 279647 279648 279649 279650 279651
 279652 279653 279654 279655 279656 279657 279658 279659 279660 279661
 279662 279663 279664 279665 279666 279667 1542428 1542429 1542430 1542431
 1542432 1542433 1542434 1542435 1542436 1542437 1542438 1542439 1542440 1542441
 1542442 1542443 1542444 1542445 1542446 1542447 1542448 1542449 1542450 1542451
 1542452 1542453 1542454 1542455 1542456 1542457 1542458 280114 280115 280116
 280117 280118 1542879 1542880 1542881 1542882 1542883 1542884 1542885 1542886
 1542887 1542888 1542889 1542890 1542891 1542892 1542893 1542894 1542895 1542896
 280137 280138 280139 1542900 280141 280142 280143 280144 280145 280146
 280147 280148 280149 280150 280151 1542912 1542913 280154 280155 280156
 280157 280158 280159 280160 280161 280162 280163 280164 280165 280166
 1542927 1542928 1542929 1542930 1542931 1542932 1542933 1542934 1542935 1542936
 1542937 1542938 1542939 1542940 1542941 1542942 1542943 1542944 1542945 1542946
 280187 1542948 1542949 1542950 1542951 1542952 1542953 1542954 1542955 1542956
 1542957 1542958 1542959 1542960 1542961 1542962 1542963 1542964 1542965 1542966
 1542967 1542968 1542969 1542970 1542971 1542972 1542973 1542974 1542975 280216
 280217 280218 280219 280220 280221 280222 280223 280224 280225 280226
 280227 280228 280229 280230 280231 280232 280233 280234 280235 280236
 280237 280238 280239 280240 280241 280242 280243 280244 280245 280246
 280247 280248 280249 280250 280251 280252 280253 280254 280255 280256
 280257 280258 280259 280260 280261 280262 280263 280264 280265 280266
 280267 280268 280269 280270 280271 280272 280273 280274 280275 280276
 280277 280278 280279 280280 280281 280282 280283 280284 280285 1543046
 1543047 1543048 1543049 1543050 1543051 1543052 1543053 1543054 1543055 1543056
 1543057 1543058 1543059 1543060 1543061 1543062 1543063 1543064 1543065 1543066
 1543067 1543068 1543069 1543070 1543071 1543072 1543073 1543074 1543075 1543076
 1543077 280733 280734 280735 280736 280737 280738 1543499 1543500 280741
 280742 280743 280744 1543505 1543506 1543507 1543508 1543509 1543510 1543511
 1543512 1543513 1543514 280755 280756 280757 280758 1543519 280760 280761
 280762 280763 280764 280765 280766 280767 280768 280769 280770 280771
 1543532 1543533 1543534 1543535 280776 280777 280778 280779 280780 280781
 280782 280783 280784 280785 1543546 1543547 1543548 1543549 1543550 1543551
 1543552 1543553 1543554 1543555 1543556 1543557 1543558 1543559 1543560 1543561
 1543562 1543563 1543564 1543565 280806 1543567 1543568 1543569 1543570 1543571
 1543572 1543573 1543574 1543575 1543576 1543577 1543578 1543579 1543580 1543581
 1543582 1543583 1543584 1543585 1543586 1543587 1543588 1543589 1543590 1543591
 1543592 1543593 1543594 280835 280836 280837 280838 280839 280840 280841
 280842 280843 280844 280845 280846 280847 280848 280849 280850 280851
 280852 280853 280854 280855 280856 280857 280858 280859 280860 280861
 280862 280863 280864 280865 280866 280867 280868 280869 280870 280871
 280872 280873 280874 280875 280876 280877 280878 280879 280880 280881
 280882 280883 280884 280885 280886 280887 280888 280889 280890 280891
 280892 280893 280894 280895 280896 280897 280898 280899 280900 280901
 280902 280903 280904 1543665 1543666 1543667 1543668 1543669 1543670 1543671
 1543672 1543673 1543674 1543675 1543676 1543677 1543678 1543679 1543680 1543681
 1543682 1543683 1543684 1543685 1543686 1543687 1543688 1543689 1543690 1543691
 1543692 1543693 1543694 1543695 1543696 1543697 281352 281353 281354 281355
 281356 281357 281358 281359 281360 281361 281362 281363 281364 1544125
 1544126 1544127 1544128 1544129 1544130 1544131 281372 281373 281374 281375
 281376 281377 1544138 281379 281380 281381 281382 281383 281384 281385
 281386 281387 281388 281389 281390 281391 281392 1544153 1544154 1544155
 281396 281397 281398 281399 281400 281401 281402 281403 1544164 1544165
 1544166 1544167 1544168 1544169 1544170 1544171 1544172 1544173 1544174 1544175
 1544176 1544177 1544178 1544179 1544180 1544181 1544182 1544183 281424 281425
 1544186 1544187 1544188 1544189 1544190 1544191 1544192 1544193 1544194 1544195
 1544196 1544197 1544198 1544199 1544200 1544201 1544202 1544203 1544204 1544205
 1544206 1544207 1544208 1544209 1544210 1544211 1544212 1544213 281454 281455
 281456 281457 281458 281459 281460 281461 281462 281463 281464 281465
 281466 281467 281468 281469 281470 281471 281472 281473 281474 281475
 281476 281477 281478 281479 281480 281481 281482 281483 281484 281485
 281486 281487 281488 281489 281490 281491 281492 281493 281494 281495
 281496 281497 281498 281499 281500 281501 281502 281503 281504 281505
 281506 281507 281508 281509 281510 281511 281512 281513 281514 281515
 281516 281517 281518 281519 281520 281521 281522 281523 281524 1544285
 1544286 1544287 1544288 1544289 1544290 1544291 1544292 1544293 1544294 1544295
 1544296 1544297 1544298 1544299 1544300 1544301 1544302 1544303 1544304 1544305
 1544306 1544307 1544308 1544309 1544310 1544311 1544312 1544313 1544314 1544315
 1544316 1544317 281971 281972 281973 281974 281975 281976 281977 281978
 281979 281980 281981 281982 281983 1544744 1544745 1544746 1544747 1544748
 1544749 1544750 281991 281992 281993 281994 281995 1544756 1544757 281998
 281999 282000 282001 282002 282003 282004 282005 282006 282007 282008
 282009 282010 282011 282012 282013 1544774 1544775 1544776 1544777 1544778
 1544779 1544780 1544781 1544782 1544783 1544784 1544785 1544786 1544787 1544788
 1544789 1544790 1544791 1544792 1544793 1544794 1544795 1544796 1544797 1544798
 1544799 1544800 1544801 1544802 1544803 1544804 1544805 1544806 1544807 1544808
 1544809 1544810 1544811 1544812 1544813 1544814 1544815 1544816 1544817 1544818
 1544819 1544820 1544821 1544822 1544823 1544824 1544825 1544826 1544827 1544828
 1544829 1544830 1544831 1544832 1544833 1544834 282075 282076 282077 282078
 282079 282080 282081 282082 282083 282084 282085 282086 282087 282088
 282089 282090 282091 282092 282093 282094 282095 282096 282097 282098
 282099 282100 282101 282102 282103 282104 282105 282106 282107 282108
 282109 282110 282111 282112 282113 282114 282115 282116 282117 282118
 282119 282120 282121 282122 282123 282124 282125 282126 282127 282128
 282129 282130 282131 282132 282133 282134 282135 282136 282137 282138
 282139 282140 282141 282142 282143 1544904 1544905 1544906 1544907 1544908
 1544909 1544910 1544911 1544912 1544913 1544914 1544915 1544916 1544917 1544918
 1544919 1544920 1544921 1544922 1544923 1544924 1544925 1544926 1544927 1544928
 1544929 1544930 1544931 1544932 1544933 1544934 1544935 1544936 1544937 282590
 282591 282592 282593 282594 282595 282596 282597 282598 282599 282600
 282601 1545362 1545363 1545364 1545365 1545366 1545367 1545368 1545369 282610
 282611 282612 1545373 1545374 1545375 1545376 1545377 282618 282619 282620
 282621 282622 282623 282624 282625 282626 282627 282628 282629 282630
 282631 282632 282633 282634 1545395 1545396 1545397 1545398 1545399 1545400
 1545401 1545402 1545403 1545404 1545405 1545406 1545407 1545408 1545409 1545410
 1545411 1545412 1545413 1545414 1545415 1545416 1545417 1545418 1545419 1545420
 1545421 1545422 1545423 1545424 1545425 1545426 1545427 1545428 1545429 1545430
 1545431 1545432 1545433 1545434 1545435 1545436 1545437 1545438 1545439 1545440
 1545441 1545442 1545443 1545444 1545445 1545446 1545447 1545448 1545449 1545450
 1545451 1545452 282693 282694 282695 282696 282697 282698 282699 282700
 282701 1545462 282703 282704 282705 282706 282707 282708 282709 282710
 282711 282712 282713 282714 282715 282716 282717 282718 282719 282720
 282721 282722 282723 282724 282725 282726 282727 282728 282729 282730
 282731 282732 282733 282734 282735 282736 282737 282738 282739 282740
 282741 282742 282743 282744 282745 282746 282747 282748 282749 282750
 282751 282752 282753 282754 282755 282756 282757 282758 282759 282760
 282761 282762 1545523 1545524 1545525 1545526 1545527 1545528 1545529 1545530
 1545531 1545532 1545533 1545534 1545535 1545536 1545537 1545538 1545539 1545540
 1545541 1545542 1545543 1545544 1545545 1545546 1545547 1545548 1545549 1545550
 1545551 1545552 1545553 1545554 1545555 1545556 1545557 283209 283210 283211
 283212 283213 283214 283215 283216 283217 283218 283219 283220 283221
 1545982 1545983 1545984 1545985 1545986 1545987 1545988 1545989 1545990 1545991
 1545992 1545993 1545994 283235 1545996 283237 283238 283239 283240 283241
 283242 283243 283244 283245 283246 283247 283248 283249 283250 283251
 283252 283253 283254 283255 1546016 1546017 1546018 1546019 1546020 1546021
 1546022 1546023 1546024 1546025 1546026 1546027 1546028 1546029 1546030 1546031
 1546032 1546033 1546034 1546035 1546036 1546037 1546038 1546039 1546040 1546041
 1546042 1546043 1546044 1546045 1546046 1546047 1546048 1546049 1546050 1546051
 1546052 1546053 1546054 1546055 1546056 1546057 1546058 1546059 1546060 1546061
 1546062 1546063 1546064 1546065 1546066 1546067 1546068 1546069 1546070 1546071
 1546072 1546073 1546074 283315 283316 283317 283318 283319 283320 283321
 283322 283323 283324 283325 283326 283327 283328 283329 283330 283331
 283332 283333 283334 283335 283336 283337 283338 283339 283340 283341
 283342 283343 283344 283345 283346 283347 283348 283349 283350 283351
 283352 283353 283354 283355 283356 283357 283358 283359 283360 283361
 283362 283363 283364 283365 283366 283367 283368 283369 283370 283371
 283372 283373 283374 283375 283376 283377 283378 283379 283380 283381
 1546142 1546143 1546144 1546145 1546146 1546147 1546148 1546149 1546150 1546151
 1546152 1546153 1546154 1546155 1546156 1546157 1546158 1546159 1546160 1546161
 1546162 1546163 1546164 1546165 1546166 1546167 1546168 1546169 1546170 1546171
 1546172 1546173 1546174 1546175 1546176 283828 283829 283830 283831 283832
 283833 283834 283835 283836 283837 283838 283839 283840 283841 1546602
 1546603 1546604 1546605 1546606 1546607 1546608 1546609 1546610 1546611 1546612
 1546613 283854 283855 283856 283857 283858 283859 283860 283861 283862
 283863 283864 283865 283866 283867 283868 283869 283870 283871 283872
 283873 283874 283875 1546636 1546637 1546638 1546639 1546640 1546641 1546642
 1546643 1546644 1546645 1546646 1546647 1546648 1546649 1546650 1546651 1546652
 1546653 1546654 1546655 1546656 1546657 1546658 1546659 1546660 1546661 1546662
 1546663 1546664 1546665 1546666 1546667 1546668 1546669 1546670 1546671 1546672
 1546673 1546674 1546675 1546676 1546677 1546678 1546679 1546680 1546681 1546682
 1546683 1546684 1546685 1546686 1546687 1546688 1546689 1546690 1546691 1546692
 1546693 1546694 283935 1546696 283937 283938 283939 283940 283941 283942
 283943 283944 283945 283946 283947 283948 283949 283950 283951 283952
 283953 283954 283955 283956 283957 283958 283959 283960 283961 283962
 283963 283964 283965 283966 283967 283968 283969 283970 283971 283972
 283973 283974 283975 283976 283977 283978 283979 283980 283981 283982
 283983 283984 283985 283986 283987 283988 283989 283990 283991 283992
 283993 283994 283995 283996 283997 283998 283999 284000 1546761 1546762
 1546763 1546764 1546765 1546766 1546767 1546768 1546769 1546770 1546771 1546772
 1546773 1546774 1546775 1546776 1546777 1546778 1546779 1546780 1546781 1546782
 1546783 1546784 1546785 1546786 1546787 1546788 1546789 1546790 1546791 1546792
 1546793 1546794 1546795 1546796 284447 284448 284449 284450 284451 284452
 284453 284454 284455 284456 284457 284458 284459 284460 284461 1547222
 1547223 1547224 1547225 1547226 1547227 1547228 1547229 1547230 1547231 284472
 284473 284474 284475 284476 284477 284478 284479 284480 284481 284482
 284483 284484 284485 284486 284487 284488 284489 284490 284491 284492
 284493 284494 284495 1547256 1547257 1547258 1547259 1547260 1547261 1547262
 1547263 1547264 1547265 1547266 1547267 1547268 1547269 1547270 1547271 1547272
 1547273 1547274 1547275 1547276 1547277 1547278 1547279 1547280 1547281 1547282
 1547283 1547284 1547285 1547286 1547287 1547288 1547289 1547290 1547291 1547292
 1547293 1547294 1547295 1547296 1547297 1547298 1547299 1547300 1547301 1547302
 1547303 1547304 1547305 1547306 1547307 1547308 1547309 1547310 1547311 1547312
 1547313 1547314 1547315 1547316 284557 284558 284559 284560 284561 284562
 284563 284564 284565 284566 284567 284568 284569 284570 284571 284572
 284573 284574 284575 284576 284577 284578 284579 284580 284581 284582
 284583 284584 284585 284586 284587 284588 284589 284590 284591 284592
 284593 284594 284595 284596 284597 284598 284599 284600 284601 284602
 284603 284604 284605 284606 284607 284608 284609 284610 284611 284612
 284613 284614 284615 284616 284617 284618 284619 1547380 1547381 1547382
 1547383 1547384 1547385 1547386 1547387 1547388 1547389 1547390 1547391 1547392
 1547393 1547394 1547395 1547396 1547397 1547398 1547399 1547400 1547401 1547402
 1547403 1547404 1547405 1547406 1547407 1547408 1547409 1547410 1547411 1547412
 1547413 1547414 1547415 285066 285067 285068 285069 285070 285071 285072
 285073 285074 285075 285076 285077 285078 285079 285080 285081 285082
 1547843 1547844 1547845 1547846 1547847 1547848 1547849 1547850 285091 285092
 285093 285094 285095 285096 285097 285098 285099 285100 285101 285102
 285103 285104 285105 285106 285107 285108 285109 285110 285111 285112
 285113 285114 1547875 1547876 1547877 1547878 1547879 1547880 1547881 1547882
 1547883 1547884 1547885 1547886 1547887 1547888 1547889 1547890 1547891 1547892
 1547893 1547894 1547895 1547896 1547897 1547898 1547899 1547900 1547901 1547902
 1547903 1547904 1547905 1547906 1547907 1547908 1547909 1547910 1547911 1547912
 1547913 1547914 1547915 1547916 1547917 1547918 1547919 1547920 1547921 1547922
 1547923 1547924 1547925 1547926 1547927 1547928 1547929 1547930 1547931 1547932
 1547933 1547934 1547935 1547936 1547937 1547938 285179 285180 285181 285182
 285183 285184 285185 285186 285187 285188 285189 285190 285191 285192
 285193 285194 285195 285196 285197 285198 285199 285200 285201 285202
 285203 285204 285205 285206 285207 285208 285209 285210 285211 285212
 285213 285214 285215 285216 285217 285218 285219 285220 285221 285222
 285223 285224 285225 285226 285227 285228 285229 285230 285231 285232
 285233 285234 285235 285236 285237 285238 285239 1548000 1548001 1548002
 1548003 1548004 1548005 1548006 1548007 1548008 1548009 1548010 1548011 1548012
 1548013 1548014 1548015 1548016 1548017 1548018 1548019 1548020 1548021 1548022
 1548023 1548024 1548025 1548026 1548027 1548028 1548029 1548030 1548031 1548032
 1548033 1548034 285685 285686 285687 285688 285689 285690 285691 285692
 285693 285694 285695 285696 285697 285698 285699 285700 285701 1548462
 1548463 1548464 1548465 1548466 1548467 1548468 1548469 1548470 285711 285712
 285713 285714 285715 285716 285717 285718 285719 285720 285721 285722
 285723 285724 285725 285726 285727 285728 285729 285730 285731 285732
 285733 1548494 1548495 1548496 1548497 1548498 1548499 1548500 1548501 1548502
 1548503 1548504 1548505 1548506 1548507 1548508 1548509 1548510 1548511 1548512
 1548513 1548514 1548515 1548516 1548517 1548518 1548519 1548520 1548521 1548522
 1548523 1548524 1548525 1548526 1548527 1548528 1548529 1548530 1548531 1548532
 1548533 1548534 1548535 1548536 1548537 1548538 1548539 1548540 1548541 1548542
 1548543 1548544 1548545 1548546 1548547 1548548 1548549 1548550 1548551 1548552
 1548553 1548554 1548555 1548556 1548557 1548558 285799 285800 285801 285802
 285803 285804 285805 285806 285807 285808 285809 285810 285811 285812
 285813 285814 285815 285816 285817 285818 285819 285820 285821 285822
 285823 285824 285825 285826 285827 285828 285829 285830 285831 285832
 285833 285834 285835 285836 285837 285838 285839 285840 285841 285842
 285843 285844 285845 285846 285847 285848 285849 285850 285851 285852
 285853 285854 285855 285856 285857 285858 1548619 1548620 1548621 1548622
 1548623 1548624 1548625 1548626 1548627 1548628 1548629 1548630 1548631 1548632
 1548633 1548634 1548635 1548636 1548637 1548638 1548639 1548640 1548641 1548642
 1548643 1548644 1548645 1548646 1548647 1548648 1548649 1548650 1548651 1548652
 1548653 1548654 286304 286305 286306 286307 286308 286309 286310 286311
 286312 286313 286314 286315 286316 286317 286318 286319 1549080 1549081
 1549082 1549083 1549084 1549085 1549086 1549087 1549088 1549089 286330 286331
 286332 286333 286334 286335 286336 286337 286338 286339 286340 286341
 286342 286343 286344 286345 286346 286347 286348 286349 286350 286351
 286352 286353 1549114 1549115 1549116 1549117 1549118 1549119 1549120 1549121
 1549122 1549123 1549124 1549125 1549126 1549127 1549128 1549129 1549130 1549131
 1549132 1549133 1549134 1549135 1549136 1549137 1549138 1549139 1549140 1549141
 1549142 1549143 1549144 1549145 1549146 1549147 1549148 1549149 1549150 1549151
 1549152 1549153 1549154 1549155 1549156 1549157 1549158 1549159 1549160 1549161
 1549162 1549163 1549164 1549165 1549166 1549167 1549168 1549169 1549170 1549171
 1549172 1549173 1549174 1549175 1549176 286417 286418 286419 286420 286421
 286422 286423 286424 286425 286426 286427 286428 286429 286430 286431
 286432 286433 286434 286435 286436 286437 286438 286439 286440 286441
 286442 286443 286444 286445 286446 286447 286448 286449 286450 286451
 286452 286453 286454 286455 286456 286457 286458 286459 286460 286461
 286462 286463 286464 286465 286466 286467 286468 286469 286470 286471
 286472 286473 286474 286475 286476 286477 1549238 1549239 1549240 1549241
 1549242 1549243 1549244 1549245 1549246 1549247 1549248 1549249 1549250 1549251
 1549252 1549253 1549254 1549255 1549256 1549257 1549258 1549259 1549260 1549261
 1549262 1549263 1549264 1549265 1549266 1549267 1549268 1549269 1549270 1549271
 1549272 1549273 286923 286924 286925 286926 286927 286928 286929 286930
 286931 286932 286933 286934 286935 286936 1549697 1549698 1549699 1549700
 1549701 1549702 1549703 1549704 1549705 1549706 1549707 1549708 1549709 286950
 286951 286952 286953 286954 286955 286956 286957 286958 286959 286960
 286961 286962 286963 286964 286965 286966 286967 286968 286969 286970
 286971 286972 1549733 1549734 1549735 1549736 1549737 1549738 1549739 1549740
 1549741 1549742 1549743 1549744 1549745 1549746 1549747 1549748 1549749 1549750
 1549751 1549752 1549753 1549754 1549755 1549756 1549757 1549758 1549759 1549760
 1549761 1549762 1549763 1549764 1549765 1549766 1549767 1549768 1549769 1549770
 1549771 1549772 1549773 1549774 1549775 1549776 1549777 1549778 1549779 1549780
 1549781 1549782 1549783 1549784 1549785 1549786 1549787 1549788 1549789 1549790
 1549791 1549792 1549793 1549794 287035 287036 287037 287038 1549799 287040
 287041 287042 287043 287044 287045 287046 287047 287048 287049 287050
 287051 287052 287053 287054 287055 287056 287057 287058 287059 287060
 287061 287062 287063 287064 287065 287066 287067 287068 287069 287070
 287071 287072 287073 287074 287075 287076 287077 287078 287079 287080
 287081 287082 287083 287084 287085 287086 287087 287088 287089 287090
 287091 287092 287093 287094 287095 287096 1549857 1549858 1549859 1549860
 1549861 1549862 1549863 1549864 1549865 1549866 1549867 1549868 1549869 1549870
 1549871 1549872 1549873 1549874 1549875 1549876 1549877 1549878 1549879 1549880
 1549881 1549882 1549883 1549884 1549885 1549886 1549887 1549888 1549889 1549890
 1549891 287542 287543 287544 287545 287546 287547 287548 287549 287550
 287551 287552 287553 1550314 287555 1550316 1550317 1550318 1550319 1550320
 1550321 1550322 1550323 1550324 1550325 1550326 1550327 287568 287569 287570
 287571 287572 287573 287574 287575 287576 287577 287578 287579 287580
 287581 287582 287583 287584 287585 287586 287587 287588 287589 287590
 287591 287592 1550353 1550354 1550355 1550356 1550357 1550358 1550359 1550360
 1550361 1550362 1550363 1550364 1550365 1550366 1550367 1550368 1550369 1550370
 1550371 1550372 1550373 1550374 1550375 1550376 1550377 1550378 1550379 1550380
 1550381 1550382 1550383 1550384 1550385 1550386 1550387 1550388 1550389 1550390
 1550391 1550392 1550393 1550394 1550395 1550396 1550397 1550398 1550399 1550400
 1550401 1550402 1550403 1550404 1550405 1550406 1550407 1550408 1550409 1550410
 1550411 1550412 287653 287654 287655 287656 287657 287658 287659 287660
 287661 287662 287663 287664 287665 287666 287667 287668 287669 287670
 287671 287672 287673 287674 287675 287676 287677 287678 287679 287680
 287681 287682 287683 287684 287685 287686 287687 287688 287689 287690
 287691 287692 287693 287694 287695 287696 287697 287698 287699 287700
 287701 287702 287703 287704 287705 287706 287707 287708 287709 287710
 287711 287712 287713 287714 287715 1550476 1550477 1550478 1550479 1550480
 1550481 1550482 1550483 1550484 1550485 1550486 1550487 1550488 1550489 1550490
 1550491 1550492 1550493 1550494 1550495 1550496 1550497 1550498 1550499 1550500
 1550501 1550502 1550503 1550504 1550505 1550506 1550507 1550508 1550509 1550510
 1550511 288161 288162 288163 288164 288165 288166 288167 288168 288169
 288170 288171 288172 1550933 288174 1550935 1550936 1550937 1550938 1550939
 1550940 1550941 1550942 1550943 1550944 1550945 1550946 288187 288188 288189
 288190 288191 288192 288193 288194 288195 288196 288197 288198 288199
 288200 288201 288202 288203 288204 288205 288206 288207 288208 288209
 288210 288211 1550972 1550973 1550974 1550975 1550976 1550977 1550978 1550979
 1550980 1550981 1550982 1550983 1550984 1550985 1550986 1550987 1550988 1550989
 1550990 1550991 1550992 1550993 1550994 1550995 1550996 1550997 1550998 1550999
 1551000 1551001 1551002 1551003 1551004 1551005 1551006 1551007 1551008 1551009
 1551010 1551011 1551012 1551013 1551014 1551015 1551016 1551017 1551018 1551019
 1551020 1551021 1551022 1551023 1551024 1551025 1551026 1551027 1551028 1551029
 1551030 1551031 288272 288273 288274 288275 288276 288277 288278 288279
 288280 1551041 288282 288283 288284 288285 288286 288287 288288 288289
 288290 288291 288292 288293 288294 288295 288296 288297 288298 288299
 288300 288301 288302 288303 288304 288305 288306 288307 288308 288309
 288310 288311 288312 288313 288314 288315 288316 288317 288318 288319
 288320 288321 288322 288323 288324 288325 288326 288327 288328 288329
 288330 288331 288332 288333 288334 288335 1551096 1551097 1551098 1551099
 1551100 1551101 1551102 1551103 1551104 1551105 1551106 1551107 1551108 1551109
 1551110 1551111 1551112 1551113 1551114 1551115 1551116 1551117 1551118 1551119
 1551120 1551121 1551122 1551123 1551124 1551125 1551126 1551127 1551128 1551129
 1551130 288780 288781 288782 288783 288784 288785 288786 288787 288788
 288789 288790 288791 288792 288793 1551554 1551555 1551556 1551557 1551558
 1551559 1551560 1551561 1551562 1551563 1551564 1551565 1551566 288807 288808
 288809 288810 288811 288812 288813 288814 288815 288816 288817 288818
 288819 288820 288821 288822 288823 288824 288825 288826 288827 288828
 288829 288830 1551591 1551592 1551593 1551594 1551595 1551596 1551597 1551598
 1551599 1551600 1551601 1551602 1551603 1551604 1551605 1551606 1551607 1551608
 1551609 1551610 1551611 1551612 1551613 1551614 1551615 1551616 1551617 1551618
 1551619 1551620 1551621 1551622 1551623 1551624 1551625 1551626 1551627 1551628
 1551629 1551630 1551631 1551632 1551633 1551634 1551635 1551636 1551637 1551638
 1551639 1551640 1551641 1551642 1551643 1551644 1551645 1551646 1551647 1551648
 1551649 1551650 1551651 1551652 1551653 1551654 1551655 1551656 1551657 1551658
 1551659 1551660 1551661 1551662 288903 288904 288905 288906 288907 288908
 288909 288910 288911 288912 288913 288914 288915 288916 288917 288918
 288919 288920 288921 288922 288923 288924 288925 288926 288927 288928
 288929 288930 288931 288932 288933 288934 288935 288936 288937 288938
 288939 288940 288941 288942 288943 288944 288945 288946 288947 288948
 288949 288950 288951 288952 288953 288954 1551715 1551716 1551717 1551718
 1551719 1551720 1551721 1551722 1551723 1551724 1551725 1551726 1551727 1551728
 1551729 1551730 1551731 1551732 1551733 1551734 1551735 1551736 1551737 1551738
 1551739 1551740 1551741 1551742 1551743 1551744 1551745 1551746 1551747 1551748
 1551749 289399 289400 289401 289402 289403 289404 289405 289406 289407
 289408 289409 289410 289411 289412 1552173 1552174 1552175 1552176 1552177
 1552178 1552179 289420 1552181 1552182 1552183 1552184 1552185 289426 289427
 289428 289429 289430 289431 289432 289433 289434 289435 289436 289437
 289438 289439 289440 289441 289442 289443 289444 289445 289446 289447
 289448 289449 1552210 1552211 1552212 1552213 1552214 1552215 1552216 1552217
 1552218 1552219 1552220 1552221 1552222 1552223 1552224 1552225 1552226 1552227
 1552228 1552229 1552230 1552231 1552232 1552233 1552234 1552235 1552236 1552237
 1552238 1552239 1552240 1552241 1552242 1552243 1552244 1552245 1552246 1552247
 1552248 1552249 1552250 1552251 1552252 1552253 1552254 1552255 1552256 1552257
 1552258 1552259 1552260 1552261 1552262 1552263 1552264 1552265 1552266 1552267
 1552268 1552269 1552270 1552271 1552272 1552273 1552274 1552275 1552276 1552277
 1552278 1552279 1552280 1552281 289522 289523 289524 289525 289526 289527
 289528 289529 289530 289531 289532 289533 289534 289535 289536 289537
 289538 289539 289540 289541 289542 289543 289544 289545 289546 289547
 289548 289549 289550 289551 289552 289553 289554 289555 289556 289557
 289558 289559 289560 289561 289562 289563 289564 289565 289566 289567
 289568 289569 289570 289571 289572 289573 1552334 1552335 1552336 1552337
 1552338 1552339 1552340 1552341 1552342 1552343 1552344 1552345 1552346 1552347
 1552348 1552349 1552350 1552351 1552352 1552353 1552354 1552355 1552356 1552357
 1552358 1552359 1552360 1552361 1552362 1552363 1552364 1552365 1552366 1552367
 1552368 1552369 290018 290019 290020 290021 290022 290023 290024 290025
 290026 290027 290028 290029 290030 1552791 1552792 1552793 1552794 1552795
 1552796 1552797 1552798 290039 1552800 290041 290042 290043 290044 290045
 290046 290047 290048 290049 290050 290051 290052 290053 290054 290055
 290056 290057 290058 290059 290060 290061 290062 290063 290064 290065
 290066 290067 290068 290069 290070 1552831 1552832 1552833 1552834 1552835
 1552836 1552837 1552838 1552839 1552840 1552841 1552842 1552843 1552844 1552845
 1552846 1552847 1552848 1552849 1552850 1552851 1552852 1552853 1552854 1552855
 1552856 1552857 1552858 1552859 1552860 1552861 1552862 1552863 1552864 1552865
 1552866 1552867 1552868 1552869 1552870 1552871 1552872 1552873 1552874 1552875
 1552876 1552877 1552878 1552879 1552880 1552881 1552882 1552883 1552884 1552885
 1552886 1552887 1552888 1552889 1552890 1552891 1552892 1552893 1552894 1552895
 1552896 1552897 1552898 1552899 1552900 290141 290142 290143 290144 290145
 290146 290147 290148 290149 290150 290151 290152 290153 290154 290155
 290156 290157 290158 290159 290160 290161 290162 290163 290164 290165
 290166 290167 290168 290169 290170 290171 290172 290173 290174 290175