# Name file for MODPATH 7, generated by Flopy version 3.3.4.
MPBAS      neversink_mp_forward_weak_W.mpbas
GRBDIS     neversink.dis.grb
TDIS       mfsim.tdis
HEAD       neversink.hds
BUDGET     neversink.cbc
