# MPSIM package for MODPATH 7, generated by Flopy.
neversink_mp_forward_weak_W.mpnam
neversink_mp_forward_weak_W.mplst
4 1 2 1 0 0
neversink_mp_forward_weak_W.mpend
neversink_mp_forward_weak_W.mppth
neversink_mp_forward_weak_W.timeseries
0
1
0
2
1
100 0.01
1
1
1
PG1
1
0.0
INTERNAL
3
1 47844
2 47844 1
 1 1 1
 111533 111534 111535 111536 111537 111538 111539 111540 111541 111542 111543
 111544 111545 111546 1374307 1374308 1374309 1374310 1374311 1374312 1374313
 1374314 1374315 1374316 1374317 1374318 1374319 1374320 1374321 1374322 1374323
 1374324 1374325 1374326 1374327 1374328 1374329 1374330 1374331 1374332 1374333
 111574 111575 111576 111577 111578 532499 532500 111581 111582 111583
 111584 111585 1374346 1374347 1374348 1374349 1374350 1374351 1374352 1374353
 1374354 1374355 1374356 1374357 1374358 1374359 1374360 1374361 1374362 1374363
 1374364 1374365 1374366 1374367 1374368 1374369 1374370 1374371 1374372 1374373
 111614 111615 111616 111617 111618 111619 1374380 1374381 1374382 1374383
 1374384 1374385 1374386 1374387 111628 111629 111630 111631 111632 111633
 1374394 1374395 1374396 1374397 1374398 1374399 111640 111641 111642 1374403
 1374404 1374405 1374406 1374407 1374408 1374409 1374410 1374411 1374412 1374413
 1374414 1374415 1374416 1374417 1374418 1374419 1374420 1374421 1374422 1374423
 1374424 1374425 1374426 1374427 1374428 1374429 1374430 1374431 1374432 1374433
 1374434 1374435 1374436 1374437 1374438 1374439 1374440 1374441 1374442 1374443
 1374444 1374445 1374446 1374447 1374448 1374449 1374450 1374451 1374452 1374453
 1374454 1374455 1374456 1374457 1374458 1374459 1374460 1374461 1374462 1374463
 1374464 1374465 1374466 1374467 1374468 111709 111710 111711 111712 111713
 111714 111715 111716 111717 111718 111719 111720 111721 111722 111723
 111724 111725 111726 111727 111728 111729 111730 111731 111732 111733
 111734 111735 111736 111737 111738 111739 111740 111741 111742 111743
 111744 111745 111746 111747 111748 111749 111750 111751 111752 111753
 111754 111755 111756 111757 111758 111759 111760 111761 111762 111763
 111764 111765 111766 111767 111768 111769 1374530 112152 112153 112154
 112155 112156 112157 112158 112159 112160 112161 112162 112163 112164
 112165 1374926 1374927 1374928 1374929 1374930 1374931 1374932 1374933 1374934
 1374935 1374936 1374937 1374938 1374939 1374940 1374941 1374942 1374943 1374944
 1374945 1374946 1374947 1374948 1374949 1374950 1374951 1374952 112193 112194
 112195 112196 112197 533118 533119 112200 112201 112202 112203 1374964
 1374965 1374966 1374967 1374968 1374969 1374970 1374971 1374972 1374973 1374974
 1374975 1374976 1374977 1374978 1374979 1374980 1374981 1374982 1374983 1374984
 1374985 1374986 1374987 1374988 1374989 1374990 1374991 112232 112233 112234
 112235 112236 112237 1374998 1374999 1375000 1375001 1375002 1375003 1375004
 1375005 1375006 112247 112248 112249 112250 112251 112252 112253 1375014
 1375015 1375016 1375017 1375018 112259 112260 1375021 1375022 1375023 1375024
 1375025 1375026 1375027 1375028 1375029 1375030 1375031 1375032 1375033 1375034
 1375035 1375036 1375037 1375038 1375039 1375040 1375041 1375042 1375043 1375044
 1375045 1375046 1375047 1375048 1375049 1375050 1375051 1375052 1375053 1375054
 1375055 1375056 1375057 1375058 1375059 1375060 1375061 1375062 1375063 1375064
 1375065 1375066 1375067 1375068 1375069 1375070 1375071 1375072 1375073 1375074
 1375075 1375076 1375077 1375078 1375079 1375080 1375081 1375082 1375083 1375084
 1375085 1375086 1375087 1375088 112329 112330 112331 112332 112333 112334
 112335 112336 112337 112338 112339 112340 112341 112342 112343 112344
 112345 112346 112347 112348 112349 112350 112351 112352 112353 112354
 112355 112356 112357 112358 112359 112360 112361 112362 112363 112364
 112365 112366 112367 112368 112369 112370 112371 112372 112373 112374
 112375 112376 112377 112378 112379 112380 112381 112382 112383 112384
 112385 112386 112387 112388 1375149 112770 112771 112772 112773 112774
 112775 112776 112777 112778 112779 112780 112781 112782 112783 112784
 1375545 1375546 1375547 1375548 1375549 1375550 1375551 1375552 1375553 1375554
 1375555 1375556 1375557 1375558 1375559 1375560 1375561 1375562 1375563 1375564
 1375565 1375566 1375567 1375568 1375569 1375570 1375571 112812 112813 112814
 112815 533736 533737 112818 112819 112820 112821 112822 1375583 1375584
 1375585 1375586 1375587 1375588 1375589 1375590 1375591 1375592 1375593 1375594
 1375595 1375596 1375597 1375598 1375599 1375600 1375601 1375602 1375603 1375604
 1375605 1375606 1375607 1375608 1375609 112850 112851 112852 112853 112854
 112855 112856 1375617 1375618 1375619 1375620 1375621 1375622 1375623 1375624
 112865 112866 112867 112868 112869 112870 112871 112872 112873 1375634
 1375635 112876 112877 112878 1375639 1375640 1375641 1375642 1375643 1375644
 1375645 1375646 1375647 1375648 1375649 1375650 1375651 1375652 1375653 1375654
 1375655 1375656 1375657 1375658 1375659 1375660 1375661 1375662 1375663 1375664
 1375665 1375666 1375667 1375668 1375669 1375670 1375671 1375672 1375673 1375674
 1375675 1375676 1375677 1375678 1375679 1375680 1375681 1375682 1375683 1375684
 1375685 1375686 1375687 1375688 1375689 1375690 1375691 1375692 1375693 1375694
 1375695 1375696 1375697 1375698 1375699 1375700 1375701 1375702 1375703 1375704
 1375705 1375706 1375707 112948 112949 112950 112951 112952 112953 112954
 112955 112956 112957 112958 112959 112960 112961 112962 112963 112964
 112965 112966 112967 112968 112969 112970 112971 112972 112973 112974
 112975 112976 112977 112978 112979 112980 112981 112982 112983 112984
 112985 112986 112987 112988 112989 112990 112991 112992 112993 112994
 112995 112996 112997 112998 112999 113000 113001 113002 113003 113004
 113005 113006 113007 1375768 113389 113390 113391 113392 113393 113394
 113395 113396 113397 113398 113399 113400 113401 113402 1376163 1376164
 1376165 1376166 1376167 1376168 1376169 1376170 1376171 1376172 1376173 1376174
 1376175 1376176 1376177 1376178 1376179 1376180 1376181 1376182 1376183 1376184
 1376185 1376186 1376187 1376188 1376189 1376190 113431 113432 113433 534354
 534355 534356 113437 113438 113439 113440 1376201 1376202 1376203 1376204
 1376205 1376206 1376207 1376208 1376209 1376210 1376211 1376212 1376213 1376214
 1376215 1376216 1376217 1376218 1376219 1376220 1376221 1376222 1376223 1376224
 1376225 1376226 1376227 1376228 113469 113470 113471 113472 113473 113474
 1376235 1376236 1376237 1376238 1376239 1376240 1376241 1376242 1376243 113484
 113485 113486 113487 113488 113489 113490 113491 113492 1376253 1376254
 113495 113496 113497 1376258 1376259 1376260 1376261 1376262 1376263 1376264
 1376265 1376266 1376267 1376268 1376269 1376270 1376271 1376272 1376273 1376274
 1376275 1376276 1376277 1376278 1376279 1376280 1376281 1376282 1376283 1376284
 1376285 1376286 1376287 1376288 1376289 1376290 1376291 1376292 1376293 1376294
 1376295 1376296 1376297 1376298 1376299 1376300 1376301 1376302 1376303 1376304
 1376305 1376306 1376307 1376308 1376309 1376310 1376311 1376312 1376313 1376314
 1376315 1376316 1376317 1376318 1376319 1376320 1376321 1376322 1376323 1376324
 1376325 1376326 113567 113568 113569 113570 113571 113572 113573 113574
 113575 113576 113577 113578 113579 113580 113581 113582 113583 113584
 113585 113586 113587 113588 113589 113590 113591 113592 113593 113594
 113595 113596 113597 113598 113599 113600 113601 113602 113603 113604
 113605 113606 113607 113608 113609 113610 113611 113612 113613 113614
 113615 113616 113617 113618 113619 113620 113621 113622 113623 113624
 1376385 113626 1376387 114009 114010 114011 114012 114013 114014 114015
 114016 114017 114018 114019 114020 114021 1376782 1376783 1376784 1376785
 1376786 1376787 1376788 1376789 1376790 1376791 1376792 1376793 1376794 1376795
 1376796 1376797 1376798 1376799 1376800 1376801 1376802 1376803 1376804 1376805
 1376806 114047 1376808 534969 114050 114051 534972 534973 534974 114055
 114056 114057 114058 114059 1376820 1376821 1376822 1376823 1376824 1376825
 1376826 1376827 1376828 1376829 1376830 1376831 1376832 1376833 1376834 1376835
 1376836 1376837 1376838 1376839 1376840 1376841 1376842 1376843 1376844 1376845
 1376846 1376847 114088 114089 114090 114091 114092 1376853 1376854 1376855
 1376856 1376857 1376858 1376859 1376860 1376861 1376862 1376863 1376864 1376865
 114106 114107 114108 114109 114110 114111 1376872 114113 114114 114115
 1376876 1376877 1376878 1376879 1376880 1376881 1376882 1376883 1376884 1376885
 1376886 1376887 1376888 1376889 1376890 1376891 1376892 1376893 1376894 1376895
 1376896 1376897 1376898 1376899 1376900 1376901 1376902 1376903 1376904 1376905
 1376906 1376907 1376908 1376909 1376910 1376911 1376912 1376913 1376914 1376915
 1376916 1376917 1376918 1376919 1376920 1376921 1376922 1376923 1376924 1376925
 1376926 1376927 1376928 1376929 1376930 1376931 1376932 1376933 1376934 1376935
 1376936 1376937 1376938 1376939 1376940 1376941 1376942 1376943 1376944 1376945
 114186 114187 114188 114189 114190 114191 114192 114193 114194 114195
 114196 114197 114198 114199 114200 114201 114202 114203 114204 114205
 114206 114207 114208 114209 114210 114211 114212 114213 114214 114215
 114216 114217 114218 114219 114220 114221 114222 114223 114224 114225
 114226 114227 114228 114229 114230 114231 114232 114233 114234 114235
 114236 114237 114238 114239 114240 114241 114242 114243 114244 114245
 1377006 114630 114631 114632 114633 114634 114635 114636 114637 114638
 114639 114640 114641 114642 114643 114644 1377405 1377406 1377407 1377408
 1377409 1377410 1377411 1377412 1377413 1377414 1377415 1377416 1377417 1377418
 1377419 1377420 1377421 1377422 1377423 1377424 1377425 114666 114667 114668
 114669 535590 535591 535592 114673 114674 114675 114676 114677 1377438
 1377439 1377440 1377441 1377442 1377443 1377444 1377445 1377446 1377447 1377448
 1377449 1377450 1377451 1377452 1377453 1377454 1377455 1377456 1377457 1377458
 1377459 1377460 1377461 1377462 1377463 1377464 1377465 1377466 114707 114708
 114709 1377470 1377471 1377472 1377473 1377474 1377475 1377476 1377477 1377478
 1377479 1377480 1377481 1377482 1377483 1377484 114725 114726 1377487 114728
 114729 114730 1377491 114732 114733 114734 114735 1377496 1377497 1377498
 1377499 1377500 1377501 1377502 1377503 1377504 1377505 1377506 1377507 1377508
 1377509 1377510 1377511 1377512 1377513 1377514 1377515 1377516 1377517 1377518
 1377519 1377520 1377521 1377522 1377523 1377524 1377525 1377526 1377527 1377528
 1377529 1377530 1377531 1377532 1377533 1377534 1377535 1377536 1377537 1377538
 1377539 1377540 1377541 1377542 1377543 1377544 1377545 1377546 1377547 1377548
 1377549 1377550 1377551 1377552 1377553 1377554 1377555 1377556 1377557 1377558
 1377559 1377560 1377561 1377562 1377563 1377564 1377565 114806 114807 114808
 114809 114810 114811 114812 114813 114814 114815 114816 114817 114818
 114819 114820 114821 114822 114823 114824 114825 114826 114827 114828
 114829 114830 114831 114832 114833 114834 114835 114836 114837 114838
 114839 114840 114841 114842 114843 114844 114845 114846 114847 114848
 114849 114850 114851 114852 114853 114854 114855 114856 114857 114858
 114859 114860 114861 114862 114863 114864 1377625 115251 115252 115253
 115254 115257 115258 115259 115260 115261 115262 115263 115264 1378025
 1378026 1378027 1378028 1378029 1378030 1378031 1378032 1378033 1378034 1378035
 1378036 1378037 1378038 1378039 1378040 1378041 1378042 1378043 1378044 115285
 115286 115287 536208 536209 536210 115291 115292 115293 115294 115295
 115296 115297 1378058 1378059 1378060 1378061 1378062 1378063 1378064 1378065
 1378066 1378067 1378068 1378069 1378070 1378071 1378072 1378073 1378074 1378075
 1378076 1378077 1378078 1378079 1378080 1378081 1378082 1378083 1378084 115325
 115326 1378087 1378088 1378089 1378090 1378091 1378092 1378093 1378094 1378095
 1378096 1378097 1378098 1378099 1378100 1378101 1378102 1378103 115344 1378105
 1378106 1378107 1378108 1378109 115350 115351 115352 1378113 1378114 1378115
 1378116 1378117 1378118 1378119 1378120 1378121 1378122 1378123 1378124 1378125
 1378126 1378127 1378128 1378129 1378130 1378131 1378132 1378133 1378134 1378135
 1378136 1378137 1378138 1378139 1378140 1378141 1378142 1378143 1378144 1378145
 1378146 1378147 1378148 1378149 1378150 1378151 1378152 1378153 1378154 1378155
 1378156 1378157 1378158 1378159 1378160 1378161 1378162 1378163 1378164 1378165
 1378166 1378167 1378168 1378169 1378170 1378171 1378172 1378173 1378174 1378175
 1378176 1378177 1378178 1378179 1378180 1378181 1378182 1378183 1378184 115425
 115426 115427 115428 115429 115430 115431 115432 115433 115434 115435
 115436 115437 115438 115439 115440 115441 115442 115443 115444 115445
 115446 115447 115448 115449 115450 115451 115452 115453 115454 115455
 115456 115457 115458 115459 115460 115461 115462 115463 115464 115465
 115466 115467 115468 115469 115470 115471 115472 115473 115474 115475
 115476 115477 115478 115479 1378240 1378241 1378242 1378243 1378244 115883
 115884 1378645 1378646 1378647 1378648 1378649 1378650 1378651 1378652 1378653
 1378654 1378655 1378656 1378657 1378658 1378659 1378660 1378661 1378662 1378663
 115904 115905 115906 536827 536828 115909 115910 115911 115912 115913
 115914 115915 115916 1378677 1378678 1378679 1378680 1378681 1378682 1378683
 1378684 1378685 1378686 1378687 1378688 1378689 1378690 1378691 1378692 1378693
 1378694 1378695 1378696 1378697 1378698 1378699 1378700 1378701 115942 115943
 115944 1378705 1378706 1378707 1378708 1378709 1378710 1378711 1378712 1378713
 1378714 1378715 1378716 1378717 1378718 1378719 1378720 1378721 1378722 1378723
 1378724 1378725 1378726 1378727 1378728 115969 115970 115971 1378732 1378733
 1378734 1378735 1378736 1378737 1378738 1378739 1378740 1378741 1378742 1378743
 1378744 1378745 1378746 1378747 1378748 1378749 1378750 1378751 1378752 1378753
 1378754 1378755 1378756 1378757 1378758 1378759 1378760 1378761 1378762 1378763
 1378764 1378765 1378766 1378767 1378768 1378769 1378770 1378771 1378772 1378773
 1378774 1378775 1378776 1378777 1378778 1378779 1378780 1378781 1378782 1378783
 1378784 1378785 1378786 1378787 1378788 1378789 1378790 1378791 1378792 1378793
 1378794 1378795 1378796 1378797 1378798 1378799 1378800 1378801 1378802 1378803
 116044 116045 116046 116047 116048 116049 116050 116051 116052 116053
 116054 116055 116056 116057 116058 116059 116060 116061 116062 116063
 116064 116065 116066 116067 116068 116069 116070 116071 116072 116073
 116074 116075 116076 116077 116078 116079 116080 116081 116082 116083
 116084 116085 1378846 1378847 1378848 116089 116090 116091 116092 116093
 116094 116095 1378856 1378857 1378858 1378859 1378860 1378861 1378862 1378863
 116501 116502 116503 1379264 1379265 1379266 1379267 1379268 1379269 1379270
 1379271 1379272 1379273 1379274 1379275 1379276 1379277 1379278 1379279 1379280
 1379281 1379282 116523 116524 116525 537446 537447 116528 116529 116530
 116531 116532 116533 116534 116535 1379296 1379297 1379298 1379299 1379300
 1379301 1379302 1379303 1379304 1379305 1379306 1379307 1379308 1379309 1379310
 1379311 1379312 1379313 1379314 1379315 1379316 1379317 1379318 1379319 116560
 116561 116562 1379323 1379324 1379325 1379326 1379327 1379328 1379329 1379330
 1379331 1379332 1379333 1379334 1379335 1379336 1379337 1379338 1379339 1379340
 1379341 1379342 1379343 1379344 1379345 1379346 116587 116588 116589 116590
 1379351 1379352 1379353 1379354 1379355 1379356 1379357 1379358 1379359 1379360
 1379361 1379362 1379363 1379364 1379365 1379366 1379367 1379368 1379369 1379370
 1379371 1379372 1379373 1379374 1379375 1379376 1379377 1379378 1379379 1379380
 1379381 1379382 1379383 1379384 1379385 1379386 1379387 1379388 1379389 1379390
 1379391 1379392 1379393 1379394 1379395 1379396 1379397 1379398 1379399 1379400
 1379401 1379402 1379403 1379404 1379405 1379406 1379407 1379408 1379409 1379410
 1379411 1379412 1379413 1379414 1379415 1379416 1379417 1379418 1379419 1379420
 1379421 1379422 1379423 116664 116665 116666 116667 116668 116669 116670
 116671 116672 116673 116674 116675 116676 116677 116678 116679 116680
 116681 116682 116683 116684 116685 116686 116687 116688 116689 116690
 116691 116692 116693 116694 116695 116696 116697 116698 116699 116700
 116701 116702 116703 116704 1379465 1379466 1379467 1379468 1379469 116710
 116711 116712 116713 116714 116715 1379476 1379477 1379478 1379479 1379480
 1379481 1379482 117120 117121 117122 117123 1379884 1379885 1379886 1379887
 1379888 1379889 1379890 1379891 1379892 1379893 1379894 1379895 1379896 1379897
 1379898 1379899 1379900 1379901 117142 117143 538064 538065 538066 117147
 117148 117149 117150 117151 117152 117153 117154 117155 117156 1379917
 1379918 1379919 1379920 1379921 1379922 1379923 1379924 1379925 1379926 1379927
 1379928 1379929 1379930 1379931 1379932 1379933 1379934 1379935 1379936 1379937
 117178 117179 1379940 1379941 1379942 1379943 1379944 1379945 1379946 1379947
 1379948 1379949 1379950 1379951 1379952 117193 117194 117195 117196 1379957
 1379958 1379959 1379960 1379961 1379962 1379963 1379964 1379965 117206 117207
 117208 117209 1379970 1379971 1379972 1379973 1379974 1379975 1379976 1379977
 1379978 1379979 1379980 1379981 1379982 1379983 1379984 1379985 1379986 1379987
 1379988 1379989 1379990 1379991 1379992 1379993 1379994 1379995 1379996 1379997
 1379998 1379999 1380000 1380001 1380002 1380003 1380004 1380005 1380006 1380007
 1380008 1380009 1380010 1380011 1380012 1380013 1380014 1380015 1380016 1380017
 1380018 1380019 1380020 1380021 1380022 1380023 1380024 1380025 1380026 1380027
 1380028 1380029 1380030 1380031 1380032 1380033 1380034 1380035 1380036 1380037
 1380038 1380039 1380040 1380041 1380042 1380043 117284 117285 117286 117287
 117288 117289 117290 117291 117292 117293 117294 117295 117296 117297
 117298 117299 117300 117301 117302 117303 117304 117305 117306 117307
 117308 117309 117310 117311 117312 117313 117314 117315 117316 117317
 117318 117319 117320 117321 117322 117323 117324 117325 1380086 1380087
 1380088 117329 117330 117331 1380092 1380093 1380094 1380095 1380096 1380097
 1380098 1380099 1380100 1380101 117739 117740 117741 117742 1380503 1380504
 1380505 1380506 1380507 1380508 1380509 1380510 1380511 1380512 1380513 1380514
 1380515 1380516 1380517 1380518 1380519 1380520 117761 117762 1380523 538684
 538685 117766 117767 117768 117769 117770 117771 117772 117773 117774
 117775 1380536 1380537 1380538 1380539 1380540 1380541 1380542 1380543 1380544
 1380545 1380546 1380547 1380548 1380549 1380550 1380551 1380552 1380553 1380554
 1380555 117796 117797 1380558 1380559 1380560 1380561 1380562 1380563 1380564
 1380565 1380566 117807 117808 117809 117810 117811 117812 117813 117814
 117815 117816 1380577 1380578 1380579 1380580 1380581 1380582 117823 117824
 117825 117826 117827 1380588 1380589 1380590 1380591 1380592 1380593 1380594
 1380595 1380596 1380597 1380598 1380599 1380600 1380601 1380602 1380603 1380604
 1380605 1380606 1380607 1380608 1380609 1380610 1380611 1380612 1380613 1380614
 1380615 1380616 1380617 1380618 1380619 1380620 1380621 1380622 1380623 1380624
 1380625 1380626 1380627 1380628 1380629 1380630 1380631 1380632 1380633 1380634
 1380635 1380636 1380637 1380638 1380639 1380640 1380641 1380642 1380643 1380644
 1380645 1380646 1380647 1380648 1380649 1380650 1380651 1380652 1380653 1380654
 1380655 1380656 1380657 1380658 1380659 1380660 1380661 1380662 117903 117904
 117905 117906 117907 117908 117909 117910 117911 117912 117913 117914
 117915 117916 117917 117918 117919 117920 117921 117922 117923 117924
 117925 117926 117927 117928 117929 117930 117931 117932 117933 117934
 117935 117936 117937 117938 117939 117940 117941 117942 117943 117944
 1380705 1380706 1380707 1380708 1380709 1380710 1380711 1380712 1380713 1380714
 1380715 1380716 1380717 1380718 1380719 1380720 118358 118359 118360 118361
 1381122 1381123 1381124 1381125 1381126 1381127 1381128 1381129 1381130 1381131
 1381132 1381133 1381134 1381135 1381136 1381137 1381138 1381139 1381140 1381141
 1381142 1381143 539304 118385 118386 118387 118388 118389 118390 118391
 118392 118393 118394 1381155 1381156 1381157 1381158 1381159 1381160 1381161
 1381162 1381163 1381164 1381165 1381166 1381167 1381168 1381169 1381170 1381171
 1381172 118413 118414 118415 1381176 1381177 1381178 1381179 1381180 1381181
 1381182 1381183 1381184 1381185 118426 118427 118428 118429 118430 118431
 118432 118433 118434 118435 118436 1381197 1381198 1381199 1381200 118441
 118442 118443 118444 118445 1381206 1381207 1381208 1381209 1381210 1381211
 1381212 1381213 1381214 1381215 1381216 1381217 1381218 1381219 1381220 1381221
 1381222 1381223 1381224 1381225 1381226 1381227 1381228 1381229 1381230 1381231
 1381232 1381233 1381234 1381235 1381236 1381237 1381238 1381239 1381240 1381241
 1381242 1381243 1381244 1381245 1381246 1381247 1381248 1381249 1381250 1381251
 1381252 1381253 1381254 1381255 1381256 1381257 1381258 1381259 1381260 1381261
 1381262 1381263 1381264 1381265 1381266 1381267 1381268 1381269 1381270 1381271
 1381272 1381273 1381274 1381275 1381276 1381277 1381278 1381279 1381280 1381281
 118522 118523 118524 118525 118526 118527 118528 118529 118530 118531
 118532 118533 118534 118535 118536 118537 118538 118539 118540 118541
 118542 118543 118544 118545 118546 118547 118548 118549 118550 118551
 118552 118553 118554 118555 118556 118557 118558 118559 118560 118561
 118562 118563 1381324 1381325 1381326 1381327 1381328 1381329 1381330 1381331
 1381332 1381333 1381334 1381335 1381336 118577 118578 1381339 118976 118977
 118978 118979 118980 1381741 1381742 1381743 1381744 1381745 1381746 1381747
 1381748 1381749 1381750 1381751 1381752 1381753 1381754 1381755 1381756 1381757
 1381758 1381759 1381760 1381761 1381762 1381763 1381764 119005 119006 119007
 119008 119009 119010 119011 119012 119013 119014 1381775 1381776 1381777
 1381778 1381779 1381780 1381781 1381782 1381783 119024 119025 119026 119027
 1381788 1381789 1381790 1381791 119032 119033 1381794 1381795 1381796 1381797
 1381798 1381799 1381800 1381801 1381802 1381803 119044 119045 119046 119047
 119048 119049 119050 119051 119052 119053 119054 119055 1381816 1381817
 1381818 1381819 119060 119061 119062 119063 1381824 1381825 1381826 1381827
 1381828 1381829 1381830 1381831 1381832 1381833 1381834 1381835 1381836 1381837
 1381838 1381839 1381840 1381841 1381842 1381843 1381844 1381845 1381846 1381847
 1381848 1381849 1381850 1381851 1381852 1381853 1381854 1381855 1381856 119097
 119098 119099 1381860 1381861 1381862 1381863 1381864 1381865 1381866 1381867
 1381868 1381869 1381870 1381871 1381872 1381873 1381874 1381875 1381876 1381877
 1381878 1381879 1381880 1381881 1381882 1381883 1381884 1381885 1381886 1381887
 1381888 1381889 1381890 1381891 1381892 1381893 1381894 1381895 1381896 1381897
 1381898 1381899 1381900 1381901 119142 119143 119144 119145 119146 119147
 119148 119149 119150 119151 119152 119153 119154 119155 119156 119157
 119158 119159 119160 119161 119162 119163 119164 119165 119166 119167
 119168 119169 119170 119171 119172 119173 119174 119175 119176 119177
 119178 119179 119180 119181 119182 119183 1381944 1381945 1381946 1381947
 1381948 1381949 1381950 1381951 1381952 1381953 1381954 1381955 119196 119197
 1381958 119595 119596 119597 119598 1382359 1382360 1382361 1382362 1382363
 1382364 1382365 1382366 1382367 1382368 1382369 1382370 1382371 1382372 1382373
 1382374 1382375 1382376 1382377 1382378 1382379 1382380 1382381 1382382 1382383
 1382384 540545 119626 119627 119628 119629 119630 119631 119632 119633
 119634 540555 540556 1382397 1382398 1382399 1382400 1382401 119642 119643
 119644 119645 119646 119647 119648 119649 1382410 1382411 1382412 1382413
 1382414 1382415 1382416 1382417 1382418 1382419 1382420 1382421 1382422 119663
 119664 119665 119666 119667 119668 119669 119670 119671 119672 119673
 119674 119675 119676 119677 119678 119679 119680 119681 119682 1382443
 1382444 1382445 1382446 1382447 1382448 1382449 1382450 1382451 1382452 1382453
 1382454 1382455 1382456 1382457 1382458 1382459 1382460 1382461 1382462 1382463
 1382464 1382465 1382466 1382467 1382468 1382469 1382470 1382471 1382472 1382473
 1382474 119715 119716 119717 119718 1382479 1382480 1382481 1382482 1382483
 1382484 1382485 1382486 1382487 1382488 1382489 1382490 1382491 1382492 1382493
 1382494 1382495 1382496 1382497 1382498 1382499 1382500 1382501 1382502 1382503
 1382504 1382505 1382506 1382507 1382508 1382509 1382510 1382511 1382512 1382513
 1382514 1382515 1382516 1382517 1382518 1382519 1382520 119761 119762 119763
 119764 119765 119766 119767 119768 119769 119770 119771 119772 119773
 119774 119775 119776 119777 119778 119779 119780 119781 119782 119783
 119784 119785 119786 119787 119788 119789 119790 119791 119792 119793
 119794 119795 119796 119797 119798 119799 119800 119801 119802 1382563
 1382564 1382565 1382566 1382567 1382568 1382569 1382570 1382571 1382572 1382573
 119814 119815 119816 119817 120214 120215 120216 120217 1382978 1382979
 1382980 1382981 1382982 1382983 1382984 1382985 1382986 1382987 1382988 1382989
 1382990 1382991 1382992 1382993 1382994 1382995 1382996 1382997 1382998 1382999
 1383000 1383001 1383002 1383003 1383004 1383005 541166 541167 541168 541169
 541170 120251 120252 120253 120254 120255 1383016 1383017 120258 1383019
 120260 120261 120262 120263 120264 120265 120266 120267 120268 1383029
 1383030 1383031 1383032 1383033 1383034 1383035 1383036 1383037 1383038 1383039
 120280 120281 120282 120283 120284 120285 120286 120287 120288 120289
 120290 120291 120292 120293 120294 120295 120296 120297 120298 120299
 120300 1383061 1383062 1383063 1383064 1383065 1383066 1383067 1383068 1383069
 1383070 1383071 1383072 1383073 1383074 1383075 1383076 1383077 1383078 1383079
 1383080 1383081 1383082 1383083 1383084 1383085 1383086 1383087 1383088 1383089
 1383090 1383091 1383092 120333 120334 120335 120336 120337 120338 120339
 1383100 1383101 1383102 1383103 1383104 1383105 1383106 1383107 1383108 1383109
 1383110 1383111 1383112 1383113 1383114 1383115 1383116 1383117 1383118 1383119
 1383120 1383121 1383122 1383123 1383124 1383125 1383126 1383127 1383128 1383129
 1383130 1383131 1383132 1383133 1383134 1383135 1383136 1383137 1383138 1383139
 1383140 120381 120382 120383 120384 1383145 120386 120387 120388 120389
 120390 120391 120392 120393 120394 120395 120396 120397 120398 120399
 120400 120401 120402 120403 120404 120405 120406 120407 120408 120409
 120410 120411 120412 120413 120414 120415 120416 120417 120418 120419
 120420 1383181 1383182 1383183 1383184 1383185 1383186 1383187 1383188 1383189
 1383190 1383191 120432 120433 120434 120435 120436 120833 120834 120835
 1383596 1383597 1383598 1383599 1383600 1383601 1383602 1383603 1383604 1383605
 1383606 1383607 1383608 1383609 1383610 1383611 1383612 1383613 1383614 1383615
 1383616 1383617 1383618 1383619 1383620 1383621 1383622 1383623 1383624 1383625
 541786 541787 541788 120869 120870 120871 120872 120873 120874 120875
 541796 120877 120878 120879 120880 120881 120882 120883 120884 120885
 1383646 1383647 1383648 1383649 1383650 1383651 1383652 1383653 1383654 1383655
 1383656 1383657 1383658 120899 120900 120901 120902 120903 120904 120905
 120906 120907 120908 120909 120910 120911 120912 120913 120914 120915
 120916 120917 120918 120919 1383680 1383681 1383682 1383683 1383684 1383685
 1383686 1383687 1383688 1383689 1383690 1383691 1383692 1383693 1383694 1383695
 1383696 1383697 1383698 1383699 1383700 1383701 1383702 1383703 1383704 1383705
 1383706 1383707 1383708 1383709 120950 120951 120952 120953 120954 120955
 120956 120957 120958 1383719 1383720 1383721 1383722 1383723 1383724 1383725
 1383726 1383727 1383728 1383729 1383730 1383731 1383732 1383733 1383734 1383735
 1383736 1383737 1383738 1383739 1383740 1383741 1383742 1383743 1383744 1383745
 1383746 1383747 1383748 1383749 1383750 1383751 1383752 1383753 1383754 1383755
 1383756 1383757 1383758 1383759 1383760 121001 121002 1383763 1383764 121005
 121006 121007 121008 121009 121010 121011 121012 121013 121014 121015
 121016 121017 121018 121019 121020 121021 121022 121023 121024 121025
 121026 121027 121028 121029 121030 121031 121032 121033 121034 121035
 121036 121037 121038 121039 1383800 1383801 1383802 1383803 1383804 1383805
 1383806 1383807 1383808 1383809 121050 121051 121052 121053 121054 121055
 1384213 1384214 1384215 1384216 1384217 1384218 1384219 1384220 121461 121462
 121463 1384224 1384225 1384226 1384227 1384228 121469 121470 1384231 1384232
 1384233 1384234 1384235 1384236 1384237 1384238 1384239 1384240 1384241 1384242
 1384243 1384244 1384245 1384246 542407 121488 121489 121490 121491 121492
 121493 121494 121495 121496 121497 121498 121499 121500 121501 121502
 121503 1384264 1384265 1384266 1384267 1384268 1384269 1384270 1384271 1384272
 1384273 1384274 1384275 1384276 1384277 121518 121519 121520 121521 121522
 121523 121524 121525 121526 121527 121528 121529 121530 121531 121532
 121533 121534 121535 121536 121537 1384298 1384299 1384300 1384301 1384302
 1384303 1384304 1384305 1384306 1384307 1384308 1384309 1384310 1384311 1384312
 1384313 1384314 1384315 1384316 1384317 1384318 1384319 1384320 1384321 1384322
 1384323 1384324 1384325 1384326 1384327 121568 121569 121570 121571 121572
 121573 121574 121575 121576 121577 1384338 1384339 1384340 1384341 1384342
 1384343 1384344 1384345 1384346 1384347 1384348 1384349 1384350 1384351 1384352
 1384353 1384354 1384355 1384356 1384357 1384358 1384359 1384360 1384361 1384362
 1384363 1384364 1384365 1384366 1384367 1384368 1384369 1384370 1384371 1384372
 1384373 1384374 1384375 1384376 1384377 1384378 1384379 1384380 1384381 1384382
 1384383 1384384 1384385 1384386 121627 121628 121629 121630 121631 121632