# File generated by Flopy version 3.3.4 on 05/14/2021 at 09:58:04.
BEGIN options
  LIST  neversink.list
  PRINT_INPUT
  SAVE_FLOWS
  NEWTON  UNDER_RELAXATION
END options

BEGIN packages
  dis6  neversink.dis  dis
  ic6  neversink.ic  ic
  npf6  neversink.npf  npf
  rch6  neversink.rcha  rcha
  oc6  neversink.oc  oc
  wel6  neversink.wel  wel_0
  obs6  neversink.obs  obs_0
  chd6  neversink.chd  chd_0
  sfr6  neversink.sfr  sfr_0
END packages

